Script started at Thu Aug  1 00:37:40 UTC 2024
Running command: build/ARM/gem5.opt configs/withcache/sve/128size-128kb-sve.py --vl=2 at Thu Aug  1 00:37:40 UTC 2024
Global frequency set at 1000000000000 ticks per second
src/base/statistics.hh:279: warn: One of the stats is a legacy stat. Legacy stat is a stat that does not belong to any statistics::Group. Legacy stat is deprecated.
system.remote_gdb: Listening for connections on port 7000
gem5 Simulator System.  https://www.gem5.org
gem5 is copyrighted software; use the --copyright option for details.

gem5 version 24.0.0.0
gem5 compiled Jul 26 2024 06:31:19
gem5 started Aug  1 2024 00:37:41
gem5 executing on f57cf331d52a, pid 464
command line: build/ARM/gem5.opt configs/withcache/sve/128size-128kb-sve.py --vl=2

Beginning simulation!
src/sim/simulate.cc:199: info: Entering event queue @ 0.  Starting simulation...
src/sim/syscall_emul.cc:74: warn: ignoring syscall set_robust_list(...)
src/sim/syscall_emul.cc:85: warn: ignoring syscall rseq(...)
      (further warnings will be suppressed)
src/sim/mem_state.cc:448: info: Increasing stack size by one page.
src/sim/syscall_emul.hh:1075: warn: readlink() called on '/proc/self/exe' may yield unexpected results in various settings.
      Returning '/gem5/running/128_sve256'
src/sim/syscall_emul.cc:74: warn: ignoring syscall mprotect(...)
Exiting @ tick 11822150000 because exiting with last active thread context
Command 'build/ARM/gem5.opt configs/withcache/sve/128size-128kb-sve.py --vl=2' completed at Thu Aug  1 00:38:04 UTC 2024
Copied stats to gem5output/stats-128size-128kb-sve-vl2.txt
------------------------------
Running command: build/ARM/gem5.opt configs/withcache/sve/128size-128kb-sve.py --vl=4 at Thu Aug  1 00:38:04 UTC 2024
Global frequency set at 1000000000000 ticks per second
src/base/statistics.hh:279: warn: One of the stats is a legacy stat. Legacy stat is a stat that does not belong to any statistics::Group. Legacy stat is deprecated.
system.remote_gdb: Listening for connections on port 7000
gem5 Simulator System.  https://www.gem5.org
gem5 is copyrighted software; use the --copyright option for details.

gem5 version 24.0.0.0
gem5 compiled Jul 26 2024 06:31:19
gem5 started Aug  1 2024 00:38:06
gem5 executing on f57cf331d52a, pid 488
command line: build/ARM/gem5.opt configs/withcache/sve/128size-128kb-sve.py --vl=4

Beginning simulation!
src/sim/simulate.cc:199: info: Entering event queue @ 0.  Starting simulation...
src/sim/syscall_emul.cc:74: warn: ignoring syscall set_robust_list(...)
src/sim/syscall_emul.cc:85: warn: ignoring syscall rseq(...)
      (further warnings will be suppressed)
src/sim/mem_state.cc:448: info: Increasing stack size by one page.
src/sim/syscall_emul.hh:1075: warn: readlink() called on '/proc/self/exe' may yield unexpected results in various settings.
      Returning '/gem5/running/128_sve512'
src/sim/syscall_emul.cc:74: warn: ignoring syscall mprotect(...)
Exiting @ tick 8190900250 because exiting with last active thread context
Command 'build/ARM/gem5.opt configs/withcache/sve/128size-128kb-sve.py --vl=4' completed at Thu Aug  1 00:38:25 UTC 2024
Copied stats to gem5output/stats-128size-128kb-sve-vl4.txt
------------------------------
Running command: build/ARM/gem5.opt configs/withcache/sve/128size-256kb-sve.py --vl=2 at Thu Aug  1 00:38:25 UTC 2024
Global frequency set at 1000000000000 ticks per second
src/base/statistics.hh:279: warn: One of the stats is a legacy stat. Legacy stat is a stat that does not belong to any statistics::Group. Legacy stat is deprecated.
system.remote_gdb: Listening for connections on port 7000
gem5 Simulator System.  https://www.gem5.org
gem5 is copyrighted software; use the --copyright option for details.

gem5 version 24.0.0.0
gem5 compiled Jul 26 2024 06:31:19
gem5 started Aug  1 2024 00:38:28
gem5 executing on f57cf331d52a, pid 513
command line: build/ARM/gem5.opt configs/withcache/sve/128size-256kb-sve.py --vl=2

Beginning simulation!
src/sim/simulate.cc:199: info: Entering event queue @ 0.  Starting simulation...
src/sim/syscall_emul.cc:74: warn: ignoring syscall set_robust_list(...)
src/sim/syscall_emul.cc:85: warn: ignoring syscall rseq(...)
      (further warnings will be suppressed)
src/sim/mem_state.cc:448: info: Increasing stack size by one page.
src/sim/syscall_emul.hh:1075: warn: readlink() called on '/proc/self/exe' may yield unexpected results in various settings.
      Returning '/gem5/running/128_sve256'
src/sim/syscall_emul.cc:74: warn: ignoring syscall mprotect(...)
Exiting @ tick 11756348250 because exiting with last active thread context
Command 'build/ARM/gem5.opt configs/withcache/sve/128size-256kb-sve.py --vl=2' completed at Thu Aug  1 00:38:55 UTC 2024
Copied stats to gem5output/stats-128size-256kb-sve-vl2.txt
------------------------------
Running command: build/ARM/gem5.opt configs/withcache/sve/128size-256kb-sve.py --vl=4 at Thu Aug  1 00:38:55 UTC 2024
Global frequency set at 1000000000000 ticks per second
src/base/statistics.hh:279: warn: One of the stats is a legacy stat. Legacy stat is a stat that does not belong to any statistics::Group. Legacy stat is deprecated.
system.remote_gdb: Listening for connections on port 7000
gem5 Simulator System.  https://www.gem5.org
gem5 is copyrighted software; use the --copyright option for details.

gem5 version 24.0.0.0
gem5 compiled Jul 26 2024 06:31:19
gem5 started Aug  1 2024 00:38:57
gem5 executing on f57cf331d52a, pid 537
command line: build/ARM/gem5.opt configs/withcache/sve/128size-256kb-sve.py --vl=4

Beginning simulation!
src/sim/simulate.cc:199: info: Entering event queue @ 0.  Starting simulation...
src/sim/syscall_emul.cc:74: warn: ignoring syscall set_robust_list(...)
src/sim/syscall_emul.cc:85: warn: ignoring syscall rseq(...)
      (further warnings will be suppressed)
src/sim/mem_state.cc:448: info: Increasing stack size by one page.
src/sim/syscall_emul.hh:1075: warn: readlink() called on '/proc/self/exe' may yield unexpected results in various settings.
      Returning '/gem5/running/128_sve512'
src/sim/syscall_emul.cc:74: warn: ignoring syscall mprotect(...)
Exiting @ tick 8128516500 because exiting with last active thread context
Command 'build/ARM/gem5.opt configs/withcache/sve/128size-256kb-sve.py --vl=4' completed at Thu Aug  1 00:39:16 UTC 2024
Copied stats to gem5output/stats-128size-256kb-sve-vl4.txt
------------------------------
Running command: build/ARM/gem5.opt configs/withcache/sve/128size-512kb-sve.py --vl=2 at Thu Aug  1 00:39:16 UTC 2024
Global frequency set at 1000000000000 ticks per second
src/base/statistics.hh:279: warn: One of the stats is a legacy stat. Legacy stat is a stat that does not belong to any statistics::Group. Legacy stat is deprecated.
system.remote_gdb: Listening for connections on port 7000
gem5 Simulator System.  https://www.gem5.org
gem5 is copyrighted software; use the --copyright option for details.

gem5 version 24.0.0.0
gem5 compiled Jul 26 2024 06:31:19
gem5 started Aug  1 2024 00:39:18
gem5 executing on f57cf331d52a, pid 562
command line: build/ARM/gem5.opt configs/withcache/sve/128size-512kb-sve.py --vl=2

Beginning simulation!
src/sim/simulate.cc:199: info: Entering event queue @ 0.  Starting simulation...
src/sim/syscall_emul.cc:74: warn: ignoring syscall set_robust_list(...)
src/sim/syscall_emul.cc:85: warn: ignoring syscall rseq(...)
      (further warnings will be suppressed)
src/sim/mem_state.cc:448: info: Increasing stack size by one page.
src/sim/syscall_emul.hh:1075: warn: readlink() called on '/proc/self/exe' may yield unexpected results in various settings.
      Returning '/gem5/running/128_sve256'
src/sim/syscall_emul.cc:74: warn: ignoring syscall mprotect(...)
Exiting @ tick 11755977000 because exiting with last active thread context
Command 'build/ARM/gem5.opt configs/withcache/sve/128size-512kb-sve.py --vl=2' completed at Thu Aug  1 00:39:49 UTC 2024
Copied stats to gem5output/stats-128size-512kb-sve-vl2.txt
------------------------------
Running command: build/ARM/gem5.opt configs/withcache/sve/128size-512kb-sve.py --vl=4 at Thu Aug  1 00:39:49 UTC 2024
Global frequency set at 1000000000000 ticks per second
src/base/statistics.hh:279: warn: One of the stats is a legacy stat. Legacy stat is a stat that does not belong to any statistics::Group. Legacy stat is deprecated.
system.remote_gdb: Listening for connections on port 7000
gem5 Simulator System.  https://www.gem5.org
gem5 is copyrighted software; use the --copyright option for details.

gem5 version 24.0.0.0
gem5 compiled Jul 26 2024 06:31:19
gem5 started Aug  1 2024 00:39:52
gem5 executing on f57cf331d52a, pid 586
command line: build/ARM/gem5.opt configs/withcache/sve/128size-512kb-sve.py --vl=4

Beginning simulation!
src/sim/simulate.cc:199: info: Entering event queue @ 0.  Starting simulation...
src/sim/syscall_emul.cc:74: warn: ignoring syscall set_robust_list(...)
src/sim/syscall_emul.cc:85: warn: ignoring syscall rseq(...)
      (further warnings will be suppressed)
src/sim/mem_state.cc:448: info: Increasing stack size by one page.
src/sim/syscall_emul.hh:1075: warn: readlink() called on '/proc/self/exe' may yield unexpected results in various settings.
      Returning '/gem5/running/128_sve512'
src/sim/syscall_emul.cc:74: warn: ignoring syscall mprotect(...)
Exiting @ tick 8128145250 because exiting with last active thread context
Command 'build/ARM/gem5.opt configs/withcache/sve/128size-512kb-sve.py --vl=4' completed at Thu Aug  1 00:40:14 UTC 2024
Copied stats to gem5output/stats-128size-512kb-sve-vl4.txt
------------------------------
Running command: build/ARM/gem5.opt configs/withcache/sve/256size-128kb-sve.py --vl=2 at Thu Aug  1 00:40:14 UTC 2024
Global frequency set at 1000000000000 ticks per second
src/base/statistics.hh:279: warn: One of the stats is a legacy stat. Legacy stat is a stat that does not belong to any statistics::Group. Legacy stat is deprecated.
system.remote_gdb: Listening for connections on port 7000
gem5 Simulator System.  https://www.gem5.org
gem5 is copyrighted software; use the --copyright option for details.

gem5 version 24.0.0.0
gem5 compiled Jul 26 2024 06:31:19
gem5 started Aug  1 2024 00:40:17
gem5 executing on f57cf331d52a, pid 611
command line: build/ARM/gem5.opt configs/withcache/sve/256size-128kb-sve.py --vl=2

Beginning simulation!
src/sim/simulate.cc:199: info: Entering event queue @ 0.  Starting simulation...
src/sim/syscall_emul.cc:74: warn: ignoring syscall set_robust_list(...)
src/sim/syscall_emul.cc:85: warn: ignoring syscall rseq(...)
      (further warnings will be suppressed)
src/sim/mem_state.cc:448: info: Increasing stack size by one page.
src/sim/syscall_emul.hh:1075: warn: readlink() called on '/proc/self/exe' may yield unexpected results in various settings.
      Returning '/gem5/running/256_sve256'
src/sim/syscall_emul.cc:74: warn: ignoring syscall mprotect(...)
Exiting @ tick 243260631750 because exiting with last active thread context
Command 'build/ARM/gem5.opt configs/withcache/sve/256size-128kb-sve.py --vl=2' completed at Thu Aug  1 00:44:09 UTC 2024
Copied stats to gem5output/stats-256size-128kb-sve-vl2.txt
------------------------------
Running command: build/ARM/gem5.opt configs/withcache/sve/256size-128kb-sve.py --vl=4 at Thu Aug  1 00:44:09 UTC 2024
Global frequency set at 1000000000000 ticks per second
src/base/statistics.hh:279: warn: One of the stats is a legacy stat. Legacy stat is a stat that does not belong to any statistics::Group. Legacy stat is deprecated.
system.remote_gdb: Listening for connections on port 7000
gem5 Simulator System.  https://www.gem5.org
gem5 is copyrighted software; use the --copyright option for details.

gem5 version 24.0.0.0
gem5 compiled Jul 26 2024 06:31:19
gem5 started Aug  1 2024 00:44:11
gem5 executing on f57cf331d52a, pid 635
command line: build/ARM/gem5.opt configs/withcache/sve/256size-128kb-sve.py --vl=4

Beginning simulation!
src/sim/simulate.cc:199: info: Entering event queue @ 0.  Starting simulation...
src/sim/syscall_emul.cc:74: warn: ignoring syscall set_robust_list(...)
src/sim/syscall_emul.cc:85: warn: ignoring syscall rseq(...)
      (further warnings will be suppressed)
src/sim/mem_state.cc:448: info: Increasing stack size by one page.
src/sim/syscall_emul.hh:1075: warn: readlink() called on '/proc/self/exe' may yield unexpected results in various settings.
      Returning '/gem5/running/256_sve512'
src/sim/syscall_emul.cc:74: warn: ignoring syscall mprotect(...)
Exiting @ tick 133913342000 because exiting with last active thread context
Command 'build/ARM/gem5.opt configs/withcache/sve/256size-128kb-sve.py --vl=4' completed at Thu Aug  1 00:46:17 UTC 2024
Copied stats to gem5output/stats-256size-128kb-sve-vl4.txt
------------------------------
Running command: build/ARM/gem5.opt configs/withcache/sve/256size-256kb-sve.py --vl=2 at Thu Aug  1 00:46:17 UTC 2024
Global frequency set at 1000000000000 ticks per second
src/base/statistics.hh:279: warn: One of the stats is a legacy stat. Legacy stat is a stat that does not belong to any statistics::Group. Legacy stat is deprecated.
system.remote_gdb: Listening for connections on port 7000
gem5 Simulator System.  https://www.gem5.org
gem5 is copyrighted software; use the --copyright option for details.

gem5 version 24.0.0.0
gem5 compiled Jul 26 2024 06:31:19
gem5 started Aug  1 2024 00:46:19
gem5 executing on f57cf331d52a, pid 660
command line: build/ARM/gem5.opt configs/withcache/sve/256size-256kb-sve.py --vl=2

Beginning simulation!
src/sim/simulate.cc:199: info: Entering event queue @ 0.  Starting simulation...
src/sim/syscall_emul.cc:74: warn: ignoring syscall set_robust_list(...)
src/sim/syscall_emul.cc:85: warn: ignoring syscall rseq(...)
      (further warnings will be suppressed)
src/sim/mem_state.cc:448: info: Increasing stack size by one page.
src/sim/syscall_emul.hh:1075: warn: readlink() called on '/proc/self/exe' may yield unexpected results in various settings.
      Returning '/gem5/running/256_sve256'
src/sim/syscall_emul.cc:74: warn: ignoring syscall mprotect(...)
Exiting @ tick 95564739500 because exiting with last active thread context
Command 'build/ARM/gem5.opt configs/withcache/sve/256size-256kb-sve.py --vl=2' completed at Thu Aug  1 00:49:24 UTC 2024
Copied stats to gem5output/stats-256size-256kb-sve-vl2.txt
------------------------------
Running command: build/ARM/gem5.opt configs/withcache/sve/256size-256kb-sve.py --vl=4 at Thu Aug  1 00:49:24 UTC 2024
Global frequency set at 1000000000000 ticks per second
src/base/statistics.hh:279: warn: One of the stats is a legacy stat. Legacy stat is a stat that does not belong to any statistics::Group. Legacy stat is deprecated.
system.remote_gdb: Listening for connections on port 7000
gem5 Simulator System.  https://www.gem5.org
gem5 is copyrighted software; use the --copyright option for details.

gem5 version 24.0.0.0
gem5 compiled Jul 26 2024 06:31:19
gem5 started Aug  1 2024 00:49:25
gem5 executing on f57cf331d52a, pid 684
command line: build/ARM/gem5.opt configs/withcache/sve/256size-256kb-sve.py --vl=4

Beginning simulation!
src/sim/simulate.cc:199: info: Entering event queue @ 0.  Starting simulation...
src/sim/syscall_emul.cc:74: warn: ignoring syscall set_robust_list(...)
src/sim/syscall_emul.cc:85: warn: ignoring syscall rseq(...)
      (further warnings will be suppressed)
src/sim/mem_state.cc:448: info: Increasing stack size by one page.
src/sim/syscall_emul.hh:1075: warn: readlink() called on '/proc/self/exe' may yield unexpected results in various settings.
      Returning '/gem5/running/256_sve512'
src/sim/syscall_emul.cc:74: warn: ignoring syscall mprotect(...)
Exiting @ tick 59062329750 because exiting with last active thread context
Command 'build/ARM/gem5.opt configs/withcache/sve/256size-256kb-sve.py --vl=4' completed at Thu Aug  1 00:52:12 UTC 2024
Copied stats to gem5output/stats-256size-256kb-sve-vl4.txt
------------------------------
Running command: build/ARM/gem5.opt configs/withcache/sve/256size-512kb-sve.py --vl=2 at Thu Aug  1 00:52:12 UTC 2024
Global frequency set at 1000000000000 ticks per second
src/base/statistics.hh:279: warn: One of the stats is a legacy stat. Legacy stat is a stat that does not belong to any statistics::Group. Legacy stat is deprecated.
system.remote_gdb: Listening for connections on port 7000
gem5 Simulator System.  https://www.gem5.org
gem5 is copyrighted software; use the --copyright option for details.

gem5 version 24.0.0.0
gem5 compiled Jul 26 2024 06:31:19
gem5 started Aug  1 2024 00:52:15
gem5 executing on f57cf331d52a, pid 709
command line: build/ARM/gem5.opt configs/withcache/sve/256size-512kb-sve.py --vl=2

Beginning simulation!
src/sim/simulate.cc:199: info: Entering event queue @ 0.  Starting simulation...
src/sim/syscall_emul.cc:74: warn: ignoring syscall set_robust_list(...)
src/sim/syscall_emul.cc:85: warn: ignoring syscall rseq(...)
      (further warnings will be suppressed)
src/sim/mem_state.cc:448: info: Increasing stack size by one page.
src/sim/syscall_emul.hh:1075: warn: readlink() called on '/proc/self/exe' may yield unexpected results in various settings.
      Returning '/gem5/running/256_sve256'
src/sim/syscall_emul.cc:74: warn: ignoring syscall mprotect(...)
Exiting @ tick 89002774750 because exiting with last active thread context
Command 'build/ARM/gem5.opt configs/withcache/sve/256size-512kb-sve.py --vl=2' completed at Thu Aug  1 00:55:14 UTC 2024
Copied stats to gem5output/stats-256size-512kb-sve-vl2.txt
------------------------------
Running command: build/ARM/gem5.opt configs/withcache/sve/256size-512kb-sve.py --vl=4 at Thu Aug  1 00:55:14 UTC 2024
Global frequency set at 1000000000000 ticks per second
src/base/statistics.hh:279: warn: One of the stats is a legacy stat. Legacy stat is a stat that does not belong to any statistics::Group. Legacy stat is deprecated.
system.remote_gdb: Listening for connections on port 7000
gem5 Simulator System.  https://www.gem5.org
gem5 is copyrighted software; use the --copyright option for details.

gem5 version 24.0.0.0
gem5 compiled Jul 26 2024 06:31:19
gem5 started Aug  1 2024 00:55:16
gem5 executing on f57cf331d52a, pid 733
command line: build/ARM/gem5.opt configs/withcache/sve/256size-512kb-sve.py --vl=4

Beginning simulation!
src/sim/simulate.cc:199: info: Entering event queue @ 0.  Starting simulation...
src/sim/syscall_emul.cc:74: warn: ignoring syscall set_robust_list(...)
src/sim/syscall_emul.cc:85: warn: ignoring syscall rseq(...)
      (further warnings will be suppressed)
src/sim/mem_state.cc:448: info: Increasing stack size by one page.
src/sim/syscall_emul.hh:1075: warn: readlink() called on '/proc/self/exe' may yield unexpected results in various settings.
      Returning '/gem5/running/256_sve512'
src/sim/syscall_emul.cc:74: warn: ignoring syscall mprotect(...)
Exiting @ tick 56004563500 because exiting with last active thread context
Command 'build/ARM/gem5.opt configs/withcache/sve/256size-512kb-sve.py --vl=4' completed at Thu Aug  1 00:57:10 UTC 2024
Copied stats to gem5output/stats-256size-512kb-sve-vl4.txt
------------------------------
Running command: build/ARM/gem5.opt configs/withcache/sve/512size-128kb-sve.py --vl=2 at Thu Aug  1 00:57:10 UTC 2024
Global frequency set at 1000000000000 ticks per second
src/base/statistics.hh:279: warn: One of the stats is a legacy stat. Legacy stat is a stat that does not belong to any statistics::Group. Legacy stat is deprecated.
system.remote_gdb: Listening for connections on port 7000
gem5 Simulator System.  https://www.gem5.org
gem5 is copyrighted software; use the --copyright option for details.

gem5 version 24.0.0.0
gem5 compiled Jul 26 2024 06:31:19
gem5 started Aug  1 2024 00:57:11
gem5 executing on f57cf331d52a, pid 758
command line: build/ARM/gem5.opt configs/withcache/sve/512size-128kb-sve.py --vl=2

Beginning simulation!
src/sim/simulate.cc:199: info: Entering event queue @ 0.  Starting simulation...
src/sim/syscall_emul.cc:74: warn: ignoring syscall set_robust_list(...)
src/sim/syscall_emul.cc:85: warn: ignoring syscall rseq(...)
      (further warnings will be suppressed)
src/sim/mem_state.cc:448: info: Increasing stack size by one page.
src/sim/syscall_emul.hh:1075: warn: readlink() called on '/proc/self/exe' may yield unexpected results in various settings.
      Returning '/gem5/running/512_sve256'
src/sim/syscall_emul.cc:74: warn: ignoring syscall mprotect(...)
Exiting @ tick 1931551095750 because exiting with last active thread context
Command 'build/ARM/gem5.opt configs/withcache/sve/512size-128kb-sve.py --vl=2' completed at Thu Aug  1 01:23:05 UTC 2024
Copied stats to gem5output/stats-512size-128kb-sve-vl2.txt
------------------------------
Running command: build/ARM/gem5.opt configs/withcache/sve/512size-128kb-sve.py --vl=4 at Thu Aug  1 01:23:05 UTC 2024
Global frequency set at 1000000000000 ticks per second
src/base/statistics.hh:279: warn: One of the stats is a legacy stat. Legacy stat is a stat that does not belong to any statistics::Group. Legacy stat is deprecated.
system.remote_gdb: Listening for connections on port 7000
gem5 Simulator System.  https://www.gem5.org
gem5 is copyrighted software; use the --copyright option for details.

gem5 version 24.0.0.0
gem5 compiled Jul 26 2024 06:31:19
gem5 started Aug  1 2024 01:23:09
gem5 executing on f57cf331d52a, pid 782
command line: build/ARM/gem5.opt configs/withcache/sve/512size-128kb-sve.py --vl=4

Beginning simulation!
src/sim/simulate.cc:199: info: Entering event queue @ 0.  Starting simulation...
src/sim/syscall_emul.cc:74: warn: ignoring syscall set_robust_list(...)
src/sim/syscall_emul.cc:85: warn: ignoring syscall rseq(...)
      (further warnings will be suppressed)
src/sim/mem_state.cc:448: info: Increasing stack size by one page.
src/sim/syscall_emul.hh:1075: warn: readlink() called on '/proc/self/exe' may yield unexpected results in various settings.
      Returning '/gem5/running/512_sve512'
src/sim/syscall_emul.cc:74: warn: ignoring syscall mprotect(...)
Exiting @ tick 1041732234000 because exiting with last active thread context
Command 'build/ARM/gem5.opt configs/withcache/sve/512size-128kb-sve.py --vl=4' completed at Thu Aug  1 01:42:41 UTC 2024
Copied stats to gem5output/stats-512size-128kb-sve-vl4.txt
------------------------------
Running command: build/ARM/gem5.opt configs/withcache/sve/512size-256kb-sve.py --vl=2 at Thu Aug  1 01:42:41 UTC 2024
Global frequency set at 1000000000000 ticks per second
src/base/statistics.hh:279: warn: One of the stats is a legacy stat. Legacy stat is a stat that does not belong to any statistics::Group. Legacy stat is deprecated.
system.remote_gdb: Listening for connections on port 7000
gem5 Simulator System.  https://www.gem5.org
gem5 is copyrighted software; use the --copyright option for details.

gem5 version 24.0.0.0
gem5 compiled Jul 26 2024 06:31:19
gem5 started Aug  1 2024 01:42:45
gem5 executing on f57cf331d52a, pid 807
command line: build/ARM/gem5.opt configs/withcache/sve/512size-256kb-sve.py --vl=2

Beginning simulation!
src/sim/simulate.cc:199: info: Entering event queue @ 0.  Starting simulation...
src/sim/syscall_emul.cc:74: warn: ignoring syscall set_robust_list(...)
src/sim/syscall_emul.cc:85: warn: ignoring syscall rseq(...)
      (further warnings will be suppressed)
src/sim/mem_state.cc:448: info: Increasing stack size by one page.
src/sim/syscall_emul.hh:1075: warn: readlink() called on '/proc/self/exe' may yield unexpected results in various settings.
      Returning '/gem5/running/512_sve256'
src/sim/syscall_emul.cc:74: warn: ignoring syscall mprotect(...)
Exiting @ tick 1931531159000 because exiting with last active thread context
Command 'build/ARM/gem5.opt configs/withcache/sve/512size-256kb-sve.py --vl=2' completed at Thu Aug  1 02:13:19 UTC 2024
Copied stats to gem5output/stats-512size-256kb-sve-vl2.txt
------------------------------
Running command: build/ARM/gem5.opt configs/withcache/sve/512size-256kb-sve.py --vl=4 at Thu Aug  1 02:13:19 UTC 2024
Global frequency set at 1000000000000 ticks per second
src/base/statistics.hh:279: warn: One of the stats is a legacy stat. Legacy stat is a stat that does not belong to any statistics::Group. Legacy stat is deprecated.
system.remote_gdb: Listening for connections on port 7000
gem5 Simulator System.  https://www.gem5.org
gem5 is copyrighted software; use the --copyright option for details.

gem5 version 24.0.0.0
gem5 compiled Jul 26 2024 06:31:19
gem5 started Aug  1 2024 02:13:22
gem5 executing on f57cf331d52a, pid 831
command line: build/ARM/gem5.opt configs/withcache/sve/512size-256kb-sve.py --vl=4

Beginning simulation!
src/sim/simulate.cc:199: info: Entering event queue @ 0.  Starting simulation...
src/sim/syscall_emul.cc:74: warn: ignoring syscall set_robust_list(...)
src/sim/syscall_emul.cc:85: warn: ignoring syscall rseq(...)
      (further warnings will be suppressed)
src/sim/mem_state.cc:448: info: Increasing stack size by one page.
src/sim/syscall_emul.hh:1075: warn: readlink() called on '/proc/self/exe' may yield unexpected results in various settings.
      Returning '/gem5/running/512_sve512'
src/sim/syscall_emul.cc:74: warn: ignoring syscall mprotect(...)
Exiting @ tick 1041730622500 because exiting with last active thread context
Command 'build/ARM/gem5.opt configs/withcache/sve/512size-256kb-sve.py --vl=4' completed at Thu Aug  1 02:29:21 UTC 2024
Copied stats to gem5output/stats-512size-256kb-sve-vl4.txt
------------------------------
Running command: build/ARM/gem5.opt configs/withcache/sve/512size-512kb-sve.py --vl=2 at Thu Aug  1 02:29:21 UTC 2024
Global frequency set at 1000000000000 ticks per second
src/base/statistics.hh:279: warn: One of the stats is a legacy stat. Legacy stat is a stat that does not belong to any statistics::Group. Legacy stat is deprecated.
system.remote_gdb: Listening for connections on port 7000
gem5 Simulator System.  https://www.gem5.org
gem5 is copyrighted software; use the --copyright option for details.

gem5 version 24.0.0.0
gem5 compiled Jul 26 2024 06:31:19
gem5 started Aug  1 2024 02:29:23
gem5 executing on f57cf331d52a, pid 856
command line: build/ARM/gem5.opt configs/withcache/sve/512size-512kb-sve.py --vl=2

Beginning simulation!
src/sim/simulate.cc:199: info: Entering event queue @ 0.  Starting simulation...
src/sim/syscall_emul.cc:74: warn: ignoring syscall set_robust_list(...)
src/sim/syscall_emul.cc:85: warn: ignoring syscall rseq(...)
      (further warnings will be suppressed)
src/sim/mem_state.cc:448: info: Increasing stack size by one page.
src/sim/syscall_emul.hh:1075: warn: readlink() called on '/proc/self/exe' may yield unexpected results in various settings.
      Returning '/gem5/running/512_sve256'
src/sim/syscall_emul.cc:74: warn: ignoring syscall mprotect(...)
Exiting @ tick 1931483004250 because exiting with last active thread context
Command 'build/ARM/gem5.opt configs/withcache/sve/512size-512kb-sve.py --vl=2' completed at Thu Aug  1 02:55:10 UTC 2024
Copied stats to gem5output/stats-512size-512kb-sve-vl2.txt
------------------------------
Running command: build/ARM/gem5.opt configs/withcache/sve/512size-512kb-sve.py --vl=4 at Thu Aug  1 02:55:10 UTC 2024
Global frequency set at 1000000000000 ticks per second
src/base/statistics.hh:279: warn: One of the stats is a legacy stat. Legacy stat is a stat that does not belong to any statistics::Group. Legacy stat is deprecated.
system.remote_gdb: Listening for connections on port 7000
gem5 Simulator System.  https://www.gem5.org
gem5 is copyrighted software; use the --copyright option for details.

gem5 version 24.0.0.0
gem5 compiled Jul 26 2024 06:31:19
gem5 started Aug  1 2024 02:55:12
gem5 executing on f57cf331d52a, pid 880
command line: build/ARM/gem5.opt configs/withcache/sve/512size-512kb-sve.py --vl=4

Beginning simulation!
src/sim/simulate.cc:199: info: Entering event queue @ 0.  Starting simulation...
src/sim/syscall_emul.cc:74: warn: ignoring syscall set_robust_list(...)
src/sim/syscall_emul.cc:85: warn: ignoring syscall rseq(...)
      (further warnings will be suppressed)
src/sim/mem_state.cc:448: info: Increasing stack size by one page.
src/sim/syscall_emul.hh:1075: warn: readlink() called on '/proc/self/exe' may yield unexpected results in various settings.
      Returning '/gem5/running/512_sve512'
src/sim/syscall_emul.cc:74: warn: ignoring syscall mprotect(...)
Exiting @ tick 1041729104750 because exiting with last active thread context
Command 'build/ARM/gem5.opt configs/withcache/sve/512size-512kb-sve.py --vl=4' completed at Thu Aug  1 03:11:50 UTC 2024
Copied stats to gem5output/stats-512size-512kb-sve-vl4.txt
------------------------------
Script finished at Thu Aug  1 03:11:50 UTC 2024
Script started at Thu Aug  1 03:29:06 UTC 2024
Running command: build/ARM/gem5.opt configs/withcache/n/512size-256kb-n.py at Thu Aug  1 03:29:06 UTC 2024
Global frequency set at 1000000000000 ticks per second
src/base/statistics.hh:279: warn: One of the stats is a legacy stat. Legacy stat is a stat that does not belong to any statistics::Group. Legacy stat is deprecated.
system.remote_gdb: Listening for connections on port 7000
gem5 Simulator System.  https://www.gem5.org
gem5 is copyrighted software; use the --copyright option for details.

gem5 version 24.0.0.0
gem5 compiled Jul 26 2024 06:31:19
gem5 started Aug  1 2024 03:29:09
gem5 executing on 2f9500df84ff, pid 61
command line: build/ARM/gem5.opt configs/withcache/n/512size-256kb-n.py

Beginning simulation!
src/sim/simulate.cc:199: info: Entering event queue @ 0.  Starting simulation...
src/sim/syscall_emul.cc:74: warn: ignoring syscall set_robust_list(...)
src/sim/syscall_emul.cc:85: warn: ignoring syscall rseq(...)
      (further warnings will be suppressed)
src/sim/mem_state.cc:448: info: Increasing stack size by one page.
src/sim/syscall_emul.hh:1075: warn: readlink() called on '/proc/self/exe' may yield unexpected results in various settings.
      Returning '/gem5/running/512_n'
src/sim/syscall_emul.cc:74: warn: ignoring syscall mprotect(...)
Exiting @ tick 12978096328250 because exiting with last active thread context
Command 'build/ARM/gem5.opt configs/withcache/n/512size-256kb-n.py' completed at Thu Aug  1 06:41:17 UTC 2024
Copied stats to gem5output/stats-512size-256kb-n.txt
------------------------------
Running command: build/ARM/gem5.opt configs/withcache/n/512size-512kb-n.py at Thu Aug  1 06:41:17 UTC 2024
Global frequency set at 1000000000000 ticks per second
src/base/statistics.hh:279: warn: One of the stats is a legacy stat. Legacy stat is a stat that does not belong to any statistics::Group. Legacy stat is deprecated.
system.remote_gdb: Listening for connections on port 7000
gem5 Simulator System.  https://www.gem5.org
gem5 is copyrighted software; use the --copyright option for details.

gem5 version 24.0.0.0
gem5 compiled Jul 26 2024 06:31:19
gem5 started Aug  1 2024 06:41:21
gem5 executing on 2f9500df84ff, pid 86
command line: build/ARM/gem5.opt configs/withcache/n/512size-512kb-n.py

Beginning simulation!
src/sim/simulate.cc:199: info: Entering event queue @ 0.  Starting simulation...
src/sim/syscall_emul.cc:74: warn: ignoring syscall set_robust_list(...)
src/sim/syscall_emul.cc:85: warn: ignoring syscall rseq(...)
      (further warnings will be suppressed)
src/sim/mem_state.cc:448: info: Increasing stack size by one page.
src/sim/syscall_emul.hh:1075: warn: readlink() called on '/proc/self/exe' may yield unexpected results in various settings.
      Returning '/gem5/running/512_n'
src/sim/syscall_emul.cc:74: warn: ignoring syscall mprotect(...)
Exiting @ tick 12977744414500 because exiting with last active thread context
Command 'build/ARM/gem5.opt configs/withcache/n/512size-512kb-n.py' completed at Thu Aug  1 09:56:36 UTC 2024
Copied stats to gem5output/stats-512size-512kb-n.txt
------------------------------
Script finished at Thu Aug  1 09:56:36 UTC 2024
Script started at Thu Aug  1 12:22:02 UTC 2024
Running command: build/ARM/gem5.opt configs/withcache/n/128size-128kb-n.py at Thu Aug  1 12:22:02 UTC 2024
Global frequency set at 1000000000000 ticks per second
src/base/statistics.hh:279: warn: One of the stats is a legacy stat. Legacy stat is a stat that does not belong to any statistics::Group. Legacy stat is deprecated.
system.remote_gdb: Listening for connections on port 7000
gem5 Simulator System.  https://www.gem5.org
gem5 is copyrighted software; use the --copyright option for details.

gem5 version 24.0.0.0
gem5 compiled Jul 26 2024 06:31:19
gem5 started Aug  1 2024 12:22:04
gem5 executing on 2f9500df84ff, pid 133
command line: build/ARM/gem5.opt configs/withcache/n/128size-128kb-n.py

Beginning simulation!
src/sim/simulate.cc:199: info: Entering event queue @ 0.  Starting simulation...
src/sim/syscall_emul.cc:74: warn: ignoring syscall set_robust_list(...)
src/sim/syscall_emul.cc:85: warn: ignoring syscall rseq(...)
      (further warnings will be suppressed)
src/sim/mem_state.cc:448: info: Increasing stack size by one page.
src/sim/syscall_emul.hh:1075: warn: readlink() called on '/proc/self/exe' may yield unexpected results in various settings.
      Returning '/gem5/running/128_n'
src/sim/syscall_emul.cc:74: warn: ignoring syscall mprotect(...)
Exiting @ tick 9854703750 because exiting with last active thread context
Command 'build/ARM/gem5.opt configs/withcache/n/128size-128kb-n.py' completed at Thu Aug  1 12:29:35 UTC 2024
Copied stats to gem5output/O3/stats-128size-128kb-n.txt
------------------------------
Running command: build/ARM/gem5.opt configs/withcache/sve/128size-128kb-sve.py --vl=1 at Thu Aug  1 12:29:35 UTC 2024
Global frequency set at 1000000000000 ticks per second
src/base/statistics.hh:279: warn: One of the stats is a legacy stat. Legacy stat is a stat that does not belong to any statistics::Group. Legacy stat is deprecated.
system.remote_gdb: Listening for connections on port 7000
gem5 Simulator System.  https://www.gem5.org
gem5 is copyrighted software; use the --copyright option for details.

gem5 version 24.0.0.0
gem5 compiled Jul 26 2024 06:31:19
gem5 started Aug  1 2024 12:29:37
gem5 executing on 2f9500df84ff, pid 158
command line: build/ARM/gem5.opt configs/withcache/sve/128size-128kb-sve.py --vl=1

Beginning simulation!
src/sim/simulate.cc:199: info: Entering event queue @ 0.  Starting simulation...
src/sim/syscall_emul.cc:74: warn: ignoring syscall set_robust_list(...)
src/sim/syscall_emul.cc:85: warn: ignoring syscall rseq(...)
      (further warnings will be suppressed)
src/sim/mem_state.cc:448: info: Increasing stack size by one page.
src/sim/syscall_emul.hh:1075: warn: readlink() called on '/proc/self/exe' may yield unexpected results in various settings.
      Returning '/gem5/running/128_sve128'
src/sim/syscall_emul.cc:74: warn: ignoring syscall mprotect(...)
Exiting @ tick 2647087750 because exiting with last active thread context
Command 'build/ARM/gem5.opt configs/withcache/sve/128size-128kb-sve.py --vl=1' completed at Thu Aug  1 12:32:03 UTC 2024
Copied stats to gem5output/O3/stats-128size-128kb-sve-vl1.txt
------------------------------
Running command: build/ARM/gem5.opt configs/withcache/sve/128size-128kb-sve.py --vl=2 at Thu Aug  1 12:32:03 UTC 2024
Global frequency set at 1000000000000 ticks per second
src/base/statistics.hh:279: warn: One of the stats is a legacy stat. Legacy stat is a stat that does not belong to any statistics::Group. Legacy stat is deprecated.
system.remote_gdb: Listening for connections on port 7000
gem5 Simulator System.  https://www.gem5.org
gem5 is copyrighted software; use the --copyright option for details.

gem5 version 24.0.0.0
gem5 compiled Jul 26 2024 06:31:19
gem5 started Aug  1 2024 12:32:05
gem5 executing on 2f9500df84ff, pid 182
command line: build/ARM/gem5.opt configs/withcache/sve/128size-128kb-sve.py --vl=2

Beginning simulation!
src/sim/simulate.cc:199: info: Entering event queue @ 0.  Starting simulation...
src/sim/syscall_emul.cc:74: warn: ignoring syscall set_robust_list(...)
src/sim/syscall_emul.cc:85: warn: ignoring syscall rseq(...)
      (further warnings will be suppressed)
src/sim/mem_state.cc:448: info: Increasing stack size by one page.
src/sim/syscall_emul.hh:1075: warn: readlink() called on '/proc/self/exe' may yield unexpected results in various settings.
      Returning '/gem5/running/128_sve256'
src/sim/syscall_emul.cc:74: warn: ignoring syscall mprotect(...)
Exiting @ tick 2007447000 because exiting with last active thread context
Command 'build/ARM/gem5.opt configs/withcache/sve/128size-128kb-sve.py --vl=2' completed at Thu Aug  1 12:33:31 UTC 2024
Copied stats to gem5output/O3/stats-128size-128kb-sve-vl2.txt
------------------------------
Running command: build/ARM/gem5.opt configs/withcache/sve/128size-128kb-sve.py --vl=4 at Thu Aug  1 12:33:31 UTC 2024
Global frequency set at 1000000000000 ticks per second
src/base/statistics.hh:279: warn: One of the stats is a legacy stat. Legacy stat is a stat that does not belong to any statistics::Group. Legacy stat is deprecated.
system.remote_gdb: Listening for connections on port 7000
gem5 Simulator System.  https://www.gem5.org
gem5 is copyrighted software; use the --copyright option for details.

gem5 version 24.0.0.0
gem5 compiled Jul 26 2024 06:31:19
gem5 started Aug  1 2024 12:33:33
gem5 executing on 2f9500df84ff, pid 206
command line: build/ARM/gem5.opt configs/withcache/sve/128size-128kb-sve.py --vl=4

Beginning simulation!
src/sim/simulate.cc:199: info: Entering event queue @ 0.  Starting simulation...
src/sim/syscall_emul.cc:74: warn: ignoring syscall set_robust_list(...)
src/sim/syscall_emul.cc:85: warn: ignoring syscall rseq(...)
      (further warnings will be suppressed)
src/sim/mem_state.cc:448: info: Increasing stack size by one page.
src/sim/syscall_emul.hh:1075: warn: readlink() called on '/proc/self/exe' may yield unexpected results in various settings.
      Returning '/gem5/running/128_sve512'
src/sim/syscall_emul.cc:74: warn: ignoring syscall mprotect(...)
Exiting @ tick 1297256500 because exiting with last active thread context
Command 'build/ARM/gem5.opt configs/withcache/sve/128size-128kb-sve.py --vl=4' completed at Thu Aug  1 12:34:37 UTC 2024
Copied stats to gem5output/O3/stats-128size-128kb-sve-vl4.txt
------------------------------
Running command: build/ARM/gem5.opt configs/withcache/n/128size-256kb-n.py at Thu Aug  1 12:34:37 UTC 2024
Global frequency set at 1000000000000 ticks per second
src/base/statistics.hh:279: warn: One of the stats is a legacy stat. Legacy stat is a stat that does not belong to any statistics::Group. Legacy stat is deprecated.
system.remote_gdb: Listening for connections on port 7000
gem5 Simulator System.  https://www.gem5.org
gem5 is copyrighted software; use the --copyright option for details.

gem5 version 24.0.0.0
gem5 compiled Jul 26 2024 06:31:19
gem5 started Aug  1 2024 12:34:39
gem5 executing on 2f9500df84ff, pid 231
command line: build/ARM/gem5.opt configs/withcache/n/128size-256kb-n.py

Beginning simulation!
src/sim/simulate.cc:199: info: Entering event queue @ 0.  Starting simulation...
src/sim/syscall_emul.cc:74: warn: ignoring syscall set_robust_list(...)
src/sim/syscall_emul.cc:85: warn: ignoring syscall rseq(...)
      (further warnings will be suppressed)
src/sim/mem_state.cc:448: info: Increasing stack size by one page.
src/sim/syscall_emul.hh:1075: warn: readlink() called on '/proc/self/exe' may yield unexpected results in various settings.
      Returning '/gem5/running/128_n'
src/sim/syscall_emul.cc:74: warn: ignoring syscall mprotect(...)
Exiting @ tick 9739651000 because exiting with last active thread context
Command 'build/ARM/gem5.opt configs/withcache/n/128size-256kb-n.py' completed at Thu Aug  1 12:43:52 UTC 2024
Copied stats to gem5output/O3/stats-128size-256kb-n.txt
------------------------------
Running command: build/ARM/gem5.opt configs/withcache/sve/128size-256kb-sve.py --vl=1 at Thu Aug  1 12:43:52 UTC 2024
Global frequency set at 1000000000000 ticks per second
src/base/statistics.hh:279: warn: One of the stats is a legacy stat. Legacy stat is a stat that does not belong to any statistics::Group. Legacy stat is deprecated.
system.remote_gdb: Listening for connections on port 7000
gem5 Simulator System.  https://www.gem5.org
gem5 is copyrighted software; use the --copyright option for details.

gem5 version 24.0.0.0
gem5 compiled Jul 26 2024 06:31:19
gem5 started Aug  1 2024 12:43:54
gem5 executing on 2f9500df84ff, pid 256
command line: build/ARM/gem5.opt configs/withcache/sve/128size-256kb-sve.py --vl=1

Beginning simulation!
src/sim/simulate.cc:199: info: Entering event queue @ 0.  Starting simulation...
src/sim/syscall_emul.cc:74: warn: ignoring syscall set_robust_list(...)
src/sim/syscall_emul.cc:85: warn: ignoring syscall rseq(...)
      (further warnings will be suppressed)
src/sim/mem_state.cc:448: info: Increasing stack size by one page.
src/sim/syscall_emul.hh:1075: warn: readlink() called on '/proc/self/exe' may yield unexpected results in various settings.
      Returning '/gem5/running/128_sve128'
src/sim/syscall_emul.cc:74: warn: ignoring syscall mprotect(...)
Exiting @ tick 2574115750 because exiting with last active thread context
Command 'build/ARM/gem5.opt configs/withcache/sve/128size-256kb-sve.py --vl=1' completed at Thu Aug  1 12:46:06 UTC 2024
Copied stats to gem5output/O3/stats-128size-256kb-sve-vl1.txt
------------------------------
Running command: build/ARM/gem5.opt configs/withcache/sve/128size-256kb-sve.py --vl=2 at Thu Aug  1 12:46:06 UTC 2024
Global frequency set at 1000000000000 ticks per second
src/base/statistics.hh:279: warn: One of the stats is a legacy stat. Legacy stat is a stat that does not belong to any statistics::Group. Legacy stat is deprecated.
system.remote_gdb: Listening for connections on port 7000
gem5 Simulator System.  https://www.gem5.org
gem5 is copyrighted software; use the --copyright option for details.

gem5 version 24.0.0.0
gem5 compiled Jul 26 2024 06:31:19
gem5 started Aug  1 2024 12:46:09
gem5 executing on 2f9500df84ff, pid 280
command line: build/ARM/gem5.opt configs/withcache/sve/128size-256kb-sve.py --vl=2

Beginning simulation!
src/sim/simulate.cc:199: info: Entering event queue @ 0.  Starting simulation...
src/sim/syscall_emul.cc:74: warn: ignoring syscall set_robust_list(...)
src/sim/syscall_emul.cc:85: warn: ignoring syscall rseq(...)
      (further warnings will be suppressed)
src/sim/mem_state.cc:448: info: Increasing stack size by one page.
src/sim/syscall_emul.hh:1075: warn: readlink() called on '/proc/self/exe' may yield unexpected results in various settings.
      Returning '/gem5/running/128_sve256'
src/sim/syscall_emul.cc:74: warn: ignoring syscall mprotect(...)
Exiting @ tick 1941657000 because exiting with last active thread context
Command 'build/ARM/gem5.opt configs/withcache/sve/128size-256kb-sve.py --vl=2' completed at Thu Aug  1 12:47:51 UTC 2024
Copied stats to gem5output/O3/stats-128size-256kb-sve-vl2.txt
------------------------------
Running command: build/ARM/gem5.opt configs/withcache/sve/128size-256kb-sve.py --vl=4 at Thu Aug  1 12:47:51 UTC 2024
Global frequency set at 1000000000000 ticks per second
src/base/statistics.hh:279: warn: One of the stats is a legacy stat. Legacy stat is a stat that does not belong to any statistics::Group. Legacy stat is deprecated.
system.remote_gdb: Listening for connections on port 7000
gem5 Simulator System.  https://www.gem5.org
gem5 is copyrighted software; use the --copyright option for details.

gem5 version 24.0.0.0
gem5 compiled Jul 26 2024 06:31:19
gem5 started Aug  1 2024 12:47:53
gem5 executing on 2f9500df84ff, pid 304
command line: build/ARM/gem5.opt configs/withcache/sve/128size-256kb-sve.py --vl=4

Beginning simulation!
src/sim/simulate.cc:199: info: Entering event queue @ 0.  Starting simulation...
src/sim/syscall_emul.cc:74: warn: ignoring syscall set_robust_list(...)
src/sim/syscall_emul.cc:85: warn: ignoring syscall rseq(...)
      (further warnings will be suppressed)
src/sim/mem_state.cc:448: info: Increasing stack size by one page.
src/sim/syscall_emul.hh:1075: warn: readlink() called on '/proc/self/exe' may yield unexpected results in various settings.
      Returning '/gem5/running/128_sve512'
src/sim/syscall_emul.cc:74: warn: ignoring syscall mprotect(...)
Exiting @ tick 1258903500 because exiting with last active thread context
Command 'build/ARM/gem5.opt configs/withcache/sve/128size-256kb-sve.py --vl=4' completed at Thu Aug  1 12:48:53 UTC 2024
Copied stats to gem5output/O3/stats-128size-256kb-sve-vl4.txt
------------------------------
Running command: build/ARM/gem5.opt configs/withcache/n/128size-512kb-n.py at Thu Aug  1 12:48:53 UTC 2024
Global frequency set at 1000000000000 ticks per second
src/base/statistics.hh:279: warn: One of the stats is a legacy stat. Legacy stat is a stat that does not belong to any statistics::Group. Legacy stat is deprecated.
system.remote_gdb: Listening for connections on port 7000
gem5 Simulator System.  https://www.gem5.org
gem5 is copyrighted software; use the --copyright option for details.

gem5 version 24.0.0.0
gem5 compiled Jul 26 2024 06:31:19
gem5 started Aug  1 2024 12:48:54
gem5 executing on 2f9500df84ff, pid 329
command line: build/ARM/gem5.opt configs/withcache/n/128size-512kb-n.py

Beginning simulation!
src/sim/simulate.cc:199: info: Entering event queue @ 0.  Starting simulation...
src/sim/syscall_emul.cc:74: warn: ignoring syscall set_robust_list(...)
src/sim/syscall_emul.cc:85: warn: ignoring syscall rseq(...)
      (further warnings will be suppressed)
src/sim/mem_state.cc:448: info: Increasing stack size by one page.
src/sim/syscall_emul.hh:1075: warn: readlink() called on '/proc/self/exe' may yield unexpected results in various settings.
      Returning '/gem5/running/128_n'
src/sim/syscall_emul.cc:74: warn: ignoring syscall mprotect(...)
Exiting @ tick 9738994000 because exiting with last active thread context
Command 'build/ARM/gem5.opt configs/withcache/n/128size-512kb-n.py' completed at Thu Aug  1 12:56:11 UTC 2024
Copied stats to gem5output/O3/stats-128size-512kb-n.txt
------------------------------
Running command: build/ARM/gem5.opt configs/withcache/sve/128size-512kb-sve.py --vl=1 at Thu Aug  1 12:56:11 UTC 2024
Global frequency set at 1000000000000 ticks per second
src/base/statistics.hh:279: warn: One of the stats is a legacy stat. Legacy stat is a stat that does not belong to any statistics::Group. Legacy stat is deprecated.
system.remote_gdb: Listening for connections on port 7000
gem5 Simulator System.  https://www.gem5.org
gem5 is copyrighted software; use the --copyright option for details.

gem5 version 24.0.0.0
gem5 compiled Jul 26 2024 06:31:19
gem5 started Aug  1 2024 12:56:13
gem5 executing on 2f9500df84ff, pid 354
command line: build/ARM/gem5.opt configs/withcache/sve/128size-512kb-sve.py --vl=1

Beginning simulation!
src/sim/simulate.cc:199: info: Entering event queue @ 0.  Starting simulation...
src/sim/syscall_emul.cc:74: warn: ignoring syscall set_robust_list(...)
src/sim/syscall_emul.cc:85: warn: ignoring syscall rseq(...)
      (further warnings will be suppressed)
src/sim/mem_state.cc:448: info: Increasing stack size by one page.
src/sim/syscall_emul.hh:1075: warn: readlink() called on '/proc/self/exe' may yield unexpected results in various settings.
      Returning '/gem5/running/128_sve128'
src/sim/syscall_emul.cc:74: warn: ignoring syscall mprotect(...)
Exiting @ tick 2573544750 because exiting with last active thread context
Command 'build/ARM/gem5.opt configs/withcache/sve/128size-512kb-sve.py --vl=1' completed at Thu Aug  1 12:58:14 UTC 2024
Copied stats to gem5output/O3/stats-128size-512kb-sve-vl1.txt
------------------------------
Running command: build/ARM/gem5.opt configs/withcache/sve/128size-512kb-sve.py --vl=2 at Thu Aug  1 12:58:14 UTC 2024
Global frequency set at 1000000000000 ticks per second
src/base/statistics.hh:279: warn: One of the stats is a legacy stat. Legacy stat is a stat that does not belong to any statistics::Group. Legacy stat is deprecated.
system.remote_gdb: Listening for connections on port 7000
gem5 Simulator System.  https://www.gem5.org
gem5 is copyrighted software; use the --copyright option for details.

gem5 version 24.0.0.0
gem5 compiled Jul 26 2024 06:31:19
gem5 started Aug  1 2024 12:58:16
gem5 executing on 2f9500df84ff, pid 378
command line: build/ARM/gem5.opt configs/withcache/sve/128size-512kb-sve.py --vl=2

Beginning simulation!
src/sim/simulate.cc:199: info: Entering event queue @ 0.  Starting simulation...
src/sim/syscall_emul.cc:74: warn: ignoring syscall set_robust_list(...)
src/sim/syscall_emul.cc:85: warn: ignoring syscall rseq(...)
      (further warnings will be suppressed)
src/sim/mem_state.cc:448: info: Increasing stack size by one page.
src/sim/syscall_emul.hh:1075: warn: readlink() called on '/proc/self/exe' may yield unexpected results in various settings.
      Returning '/gem5/running/128_sve256'
src/sim/syscall_emul.cc:74: warn: ignoring syscall mprotect(...)
Exiting @ tick 1941025500 because exiting with last active thread context
Command 'build/ARM/gem5.opt configs/withcache/sve/128size-512kb-sve.py --vl=2' completed at Thu Aug  1 12:59:36 UTC 2024
Copied stats to gem5output/O3/stats-128size-512kb-sve-vl2.txt
------------------------------
Running command: build/ARM/gem5.opt configs/withcache/sve/128size-512kb-sve.py --vl=4 at Thu Aug  1 12:59:36 UTC 2024
Global frequency set at 1000000000000 ticks per second
src/base/statistics.hh:279: warn: One of the stats is a legacy stat. Legacy stat is a stat that does not belong to any statistics::Group. Legacy stat is deprecated.
system.remote_gdb: Listening for connections on port 7000
gem5 Simulator System.  https://www.gem5.org
gem5 is copyrighted software; use the --copyright option for details.

gem5 version 24.0.0.0
gem5 compiled Jul 26 2024 06:31:19
gem5 started Aug  1 2024 12:59:38
gem5 executing on 2f9500df84ff, pid 402
command line: build/ARM/gem5.opt configs/withcache/sve/128size-512kb-sve.py --vl=4

Beginning simulation!
src/sim/simulate.cc:199: info: Entering event queue @ 0.  Starting simulation...
src/sim/syscall_emul.cc:74: warn: ignoring syscall set_robust_list(...)
src/sim/syscall_emul.cc:85: warn: ignoring syscall rseq(...)
      (further warnings will be suppressed)
src/sim/mem_state.cc:448: info: Increasing stack size by one page.
src/sim/syscall_emul.hh:1075: warn: readlink() called on '/proc/self/exe' may yield unexpected results in various settings.
      Returning '/gem5/running/128_sve512'
src/sim/syscall_emul.cc:74: warn: ignoring syscall mprotect(...)
Exiting @ tick 1258319750 because exiting with last active thread context
Command 'build/ARM/gem5.opt configs/withcache/sve/128size-512kb-sve.py --vl=4' completed at Thu Aug  1 13:00:33 UTC 2024
Copied stats to gem5output/O3/stats-128size-512kb-sve-vl4.txt
------------------------------
Running command: build/ARM/gem5.opt configs/withcache/n/256size-128kb-n.py at Thu Aug  1 13:00:33 UTC 2024
Global frequency set at 1000000000000 ticks per second
src/base/statistics.hh:279: warn: One of the stats is a legacy stat. Legacy stat is a stat that does not belong to any statistics::Group. Legacy stat is deprecated.
system.remote_gdb: Listening for connections on port 7000
gem5 Simulator System.  https://www.gem5.org
gem5 is copyrighted software; use the --copyright option for details.

gem5 version 24.0.0.0
gem5 compiled Jul 26 2024 06:31:19
gem5 started Aug  1 2024 13:00:35
gem5 executing on 2f9500df84ff, pid 427
command line: build/ARM/gem5.opt configs/withcache/n/256size-128kb-n.py

Beginning simulation!
src/sim/simulate.cc:199: info: Entering event queue @ 0.  Starting simulation...
src/sim/syscall_emul.cc:74: warn: ignoring syscall set_robust_list(...)
src/sim/syscall_emul.cc:85: warn: ignoring syscall rseq(...)
      (further warnings will be suppressed)
src/sim/mem_state.cc:448: info: Increasing stack size by one page.
src/sim/syscall_emul.hh:1075: warn: readlink() called on '/proc/self/exe' may yield unexpected results in various settings.
      Returning '/gem5/running/256_n'
src/sim/syscall_emul.cc:74: warn: ignoring syscall mprotect(...)
Exiting @ tick 566306703000 because exiting with last active thread context
Command 'build/ARM/gem5.opt configs/withcache/n/256size-128kb-n.py' completed at Thu Aug  1 14:25:32 UTC 2024
Copied stats to gem5output/O3/stats-256size-128kb-n.txt
------------------------------
Running command: build/ARM/gem5.opt configs/withcache/sve/256size-128kb-sve.py --vl=1 at Thu Aug  1 14:25:32 UTC 2024
Global frequency set at 1000000000000 ticks per second
src/base/statistics.hh:279: warn: One of the stats is a legacy stat. Legacy stat is a stat that does not belong to any statistics::Group. Legacy stat is deprecated.
system.remote_gdb: Listening for connections on port 7000
gem5 Simulator System.  https://www.gem5.org
gem5 is copyrighted software; use the --copyright option for details.

gem5 version 24.0.0.0
gem5 compiled Jul 26 2024 06:31:19
gem5 started Aug  1 2024 14:25:33
gem5 executing on 2f9500df84ff, pid 452
command line: build/ARM/gem5.opt configs/withcache/sve/256size-128kb-sve.py --vl=1

Beginning simulation!
src/sim/simulate.cc:199: info: Entering event queue @ 0.  Starting simulation...
src/sim/syscall_emul.cc:74: warn: ignoring syscall set_robust_list(...)
src/sim/syscall_emul.cc:85: warn: ignoring syscall rseq(...)
      (further warnings will be suppressed)
src/sim/mem_state.cc:448: info: Increasing stack size by one page.
src/sim/syscall_emul.hh:1075: warn: readlink() called on '/proc/self/exe' may yield unexpected results in various settings.
      Returning '/gem5/running/256_sve128'
src/sim/syscall_emul.cc:74: warn: ignoring syscall mprotect(...)
Exiting @ tick 183553006000 because exiting with last active thread context
Command 'build/ARM/gem5.opt configs/withcache/sve/256size-128kb-sve.py --vl=1' completed at Thu Aug  1 14:49:18 UTC 2024
Copied stats to gem5output/O3/stats-256size-128kb-sve-vl1.txt
------------------------------
Running command: build/ARM/gem5.opt configs/withcache/sve/256size-128kb-sve.py --vl=2 at Thu Aug  1 14:49:18 UTC 2024
Global frequency set at 1000000000000 ticks per second
src/base/statistics.hh:279: warn: One of the stats is a legacy stat. Legacy stat is a stat that does not belong to any statistics::Group. Legacy stat is deprecated.
system.remote_gdb: Listening for connections on port 7000
gem5 Simulator System.  https://www.gem5.org
gem5 is copyrighted software; use the --copyright option for details.

gem5 version 24.0.0.0
gem5 compiled Jul 26 2024 06:31:19
gem5 started Aug  1 2024 14:49:20
gem5 executing on 2f9500df84ff, pid 476
command line: build/ARM/gem5.opt configs/withcache/sve/256size-128kb-sve.py --vl=2

Beginning simulation!
src/sim/simulate.cc:199: info: Entering event queue @ 0.  Starting simulation...
src/sim/syscall_emul.cc:74: warn: ignoring syscall set_robust_list(...)
src/sim/syscall_emul.cc:85: warn: ignoring syscall rseq(...)
      (further warnings will be suppressed)
src/sim/mem_state.cc:448: info: Increasing stack size by one page.
src/sim/syscall_emul.hh:1075: warn: readlink() called on '/proc/self/exe' may yield unexpected results in various settings.
      Returning '/gem5/running/256_sve256'
src/sim/syscall_emul.cc:74: warn: ignoring syscall mprotect(...)
Exiting @ tick 96364333500 because exiting with last active thread context
Command 'build/ARM/gem5.opt configs/withcache/sve/256size-128kb-sve.py --vl=2' completed at Thu Aug  1 15:02:55 UTC 2024
Copied stats to gem5output/O3/stats-256size-128kb-sve-vl2.txt
------------------------------
Running command: build/ARM/gem5.opt configs/withcache/sve/256size-128kb-sve.py --vl=4 at Thu Aug  1 15:02:55 UTC 2024
Global frequency set at 1000000000000 ticks per second
src/base/statistics.hh:279: warn: One of the stats is a legacy stat. Legacy stat is a stat that does not belong to any statistics::Group. Legacy stat is deprecated.
system.remote_gdb: Listening for connections on port 7000
gem5 Simulator System.  https://www.gem5.org
gem5 is copyrighted software; use the --copyright option for details.

gem5 version 24.0.0.0
gem5 compiled Jul 26 2024 06:31:19
gem5 started Aug  1 2024 15:02:56
gem5 executing on 2f9500df84ff, pid 500
command line: build/ARM/gem5.opt configs/withcache/sve/256size-128kb-sve.py --vl=4

Beginning simulation!
src/sim/simulate.cc:199: info: Entering event queue @ 0.  Starting simulation...
src/sim/syscall_emul.cc:74: warn: ignoring syscall set_robust_list(...)
src/sim/syscall_emul.cc:85: warn: ignoring syscall rseq(...)
      (further warnings will be suppressed)
src/sim/mem_state.cc:448: info: Increasing stack size by one page.
src/sim/syscall_emul.hh:1075: warn: readlink() called on '/proc/self/exe' may yield unexpected results in various settings.
      Returning '/gem5/running/256_sve512'
src/sim/syscall_emul.cc:74: warn: ignoring syscall mprotect(...)
Exiting @ tick 51330602250 because exiting with last active thread context
Command 'build/ARM/gem5.opt configs/withcache/sve/256size-128kb-sve.py --vl=4' completed at Thu Aug  1 15:11:20 UTC 2024
Copied stats to gem5output/O3/stats-256size-128kb-sve-vl4.txt
------------------------------
Running command: build/ARM/gem5.opt configs/withcache/n/256size-256kb-n.py at Thu Aug  1 15:11:20 UTC 2024
Global frequency set at 1000000000000 ticks per second
src/base/statistics.hh:279: warn: One of the stats is a legacy stat. Legacy stat is a stat that does not belong to any statistics::Group. Legacy stat is deprecated.
system.remote_gdb: Listening for connections on port 7000
gem5 Simulator System.  https://www.gem5.org
gem5 is copyrighted software; use the --copyright option for details.

gem5 version 24.0.0.0
gem5 compiled Jul 26 2024 06:31:19
gem5 started Aug  1 2024 15:11:21
gem5 executing on 2f9500df84ff, pid 525
command line: build/ARM/gem5.opt configs/withcache/n/256size-256kb-n.py

Beginning simulation!
src/sim/simulate.cc:199: info: Entering event queue @ 0.  Starting simulation...
src/sim/syscall_emul.cc:74: warn: ignoring syscall set_robust_list(...)
src/sim/syscall_emul.cc:85: warn: ignoring syscall rseq(...)
      (further warnings will be suppressed)
src/sim/mem_state.cc:448: info: Increasing stack size by one page.
src/sim/syscall_emul.hh:1075: warn: readlink() called on '/proc/self/exe' may yield unexpected results in various settings.
      Returning '/gem5/running/256_n'
src/sim/syscall_emul.cc:74: warn: ignoring syscall mprotect(...)
Exiting @ tick 216334670750 because exiting with last active thread context
Command 'build/ARM/gem5.opt configs/withcache/n/256size-256kb-n.py' completed at Thu Aug  1 16:17:44 UTC 2024
Copied stats to gem5output/O3/stats-256size-256kb-n.txt
------------------------------
Running command: build/ARM/gem5.opt configs/withcache/sve/256size-256kb-sve.py --vl=1 at Thu Aug  1 16:17:44 UTC 2024
Global frequency set at 1000000000000 ticks per second
src/base/statistics.hh:279: warn: One of the stats is a legacy stat. Legacy stat is a stat that does not belong to any statistics::Group. Legacy stat is deprecated.
system.remote_gdb: Listening for connections on port 7000
gem5 Simulator System.  https://www.gem5.org
gem5 is copyrighted software; use the --copyright option for details.

gem5 version 24.0.0.0
gem5 compiled Jul 26 2024 06:31:19
gem5 started Aug  1 2024 16:17:46
gem5 executing on 2f9500df84ff, pid 550
command line: build/ARM/gem5.opt configs/withcache/sve/256size-256kb-sve.py --vl=1

Beginning simulation!
src/sim/simulate.cc:199: info: Entering event queue @ 0.  Starting simulation...
src/sim/syscall_emul.cc:74: warn: ignoring syscall set_robust_list(...)
src/sim/syscall_emul.cc:85: warn: ignoring syscall rseq(...)
      (further warnings will be suppressed)
src/sim/mem_state.cc:448: info: Increasing stack size by one page.
src/sim/syscall_emul.hh:1075: warn: readlink() called on '/proc/self/exe' may yield unexpected results in various settings.
      Returning '/gem5/running/256_sve128'
src/sim/syscall_emul.cc:74: warn: ignoring syscall mprotect(...)
Exiting @ tick 78516349250 because exiting with last active thread context
Command 'build/ARM/gem5.opt configs/withcache/sve/256size-256kb-sve.py --vl=1' completed at Thu Aug  1 16:35:37 UTC 2024
Copied stats to gem5output/O3/stats-256size-256kb-sve-vl1.txt
------------------------------
Running command: build/ARM/gem5.opt configs/withcache/sve/256size-256kb-sve.py --vl=2 at Thu Aug  1 16:35:37 UTC 2024
Global frequency set at 1000000000000 ticks per second
src/base/statistics.hh:279: warn: One of the stats is a legacy stat. Legacy stat is a stat that does not belong to any statistics::Group. Legacy stat is deprecated.
system.remote_gdb: Listening for connections on port 7000
gem5 Simulator System.  https://www.gem5.org
gem5 is copyrighted software; use the --copyright option for details.

gem5 version 24.0.0.0
gem5 compiled Jul 26 2024 06:31:19
gem5 started Aug  1 2024 16:35:39
gem5 executing on 2f9500df84ff, pid 574
command line: build/ARM/gem5.opt configs/withcache/sve/256size-256kb-sve.py --vl=2

Beginning simulation!
src/sim/simulate.cc:199: info: Entering event queue @ 0.  Starting simulation...
src/sim/syscall_emul.cc:74: warn: ignoring syscall set_robust_list(...)
src/sim/syscall_emul.cc:85: warn: ignoring syscall rseq(...)
      (further warnings will be suppressed)
src/sim/mem_state.cc:448: info: Increasing stack size by one page.
src/sim/syscall_emul.hh:1075: warn: readlink() called on '/proc/self/exe' may yield unexpected results in various settings.
      Returning '/gem5/running/256_sve256'
src/sim/syscall_emul.cc:74: warn: ignoring syscall mprotect(...)
Exiting @ tick 21018777750 because exiting with last active thread context
Command 'build/ARM/gem5.opt configs/withcache/sve/256size-256kb-sve.py --vl=2' completed at Thu Aug  1 16:44:53 UTC 2024
Copied stats to gem5output/O3/stats-256size-256kb-sve-vl2.txt
------------------------------
Running command: build/ARM/gem5.opt configs/withcache/sve/256size-256kb-sve.py --vl=4 at Thu Aug  1 16:44:53 UTC 2024
Global frequency set at 1000000000000 ticks per second
src/base/statistics.hh:279: warn: One of the stats is a legacy stat. Legacy stat is a stat that does not belong to any statistics::Group. Legacy stat is deprecated.
system.remote_gdb: Listening for connections on port 7000
gem5 Simulator System.  https://www.gem5.org
gem5 is copyrighted software; use the --copyright option for details.

gem5 version 24.0.0.0
gem5 compiled Jul 26 2024 06:31:19
gem5 started Aug  1 2024 16:44:54
gem5 executing on 2f9500df84ff, pid 598
command line: build/ARM/gem5.opt configs/withcache/sve/256size-256kb-sve.py --vl=4

Beginning simulation!
src/sim/simulate.cc:199: info: Entering event queue @ 0.  Starting simulation...
src/sim/syscall_emul.cc:74: warn: ignoring syscall set_robust_list(...)
src/sim/syscall_emul.cc:85: warn: ignoring syscall rseq(...)
      (further warnings will be suppressed)
src/sim/mem_state.cc:448: info: Increasing stack size by one page.
src/sim/syscall_emul.hh:1075: warn: readlink() called on '/proc/self/exe' may yield unexpected results in various settings.
      Returning '/gem5/running/256_sve512'
src/sim/syscall_emul.cc:74: warn: ignoring syscall mprotect(...)
Exiting @ tick 11939982250 because exiting with last active thread context
Command 'build/ARM/gem5.opt configs/withcache/sve/256size-256kb-sve.py --vl=4' completed at Thu Aug  1 16:50:54 UTC 2024
Copied stats to gem5output/O3/stats-256size-256kb-sve-vl4.txt
------------------------------
Running command: build/ARM/gem5.opt configs/withcache/n/256size-512kb-n.py at Thu Aug  1 16:50:54 UTC 2024
Global frequency set at 1000000000000 ticks per second
src/base/statistics.hh:279: warn: One of the stats is a legacy stat. Legacy stat is a stat that does not belong to any statistics::Group. Legacy stat is deprecated.
system.remote_gdb: Listening for connections on port 7000
gem5 Simulator System.  https://www.gem5.org
gem5 is copyrighted software; use the --copyright option for details.

gem5 version 24.0.0.0
gem5 compiled Jul 26 2024 06:31:19
gem5 started Aug  1 2024 16:50:55
gem5 executing on 2f9500df84ff, pid 623
command line: build/ARM/gem5.opt configs/withcache/n/256size-512kb-n.py

Beginning simulation!
src/sim/simulate.cc:199: info: Entering event queue @ 0.  Starting simulation...
src/sim/syscall_emul.cc:74: warn: ignoring syscall set_robust_list(...)
src/sim/syscall_emul.cc:85: warn: ignoring syscall rseq(...)
      (further warnings will be suppressed)
src/sim/mem_state.cc:448: info: Increasing stack size by one page.
src/sim/syscall_emul.hh:1075: warn: readlink() called on '/proc/self/exe' may yield unexpected results in various settings.
      Returning '/gem5/running/256_n'
src/sim/syscall_emul.cc:74: warn: ignoring syscall mprotect(...)
Exiting @ tick 113699169250 because exiting with last active thread context
Command 'build/ARM/gem5.opt configs/withcache/n/256size-512kb-n.py' completed at Thu Aug  1 17:51:09 UTC 2024
Copied stats to gem5output/O3/stats-256size-512kb-n.txt
------------------------------
Running command: build/ARM/gem5.opt configs/withcache/sve/256size-512kb-sve.py --vl=1 at Thu Aug  1 17:51:09 UTC 2024
Global frequency set at 1000000000000 ticks per second
src/base/statistics.hh:279: warn: One of the stats is a legacy stat. Legacy stat is a stat that does not belong to any statistics::Group. Legacy stat is deprecated.
system.remote_gdb: Listening for connections on port 7000
gem5 Simulator System.  https://www.gem5.org
gem5 is copyrighted software; use the --copyright option for details.

gem5 version 24.0.0.0
gem5 compiled Jul 26 2024 06:31:19
gem5 started Aug  1 2024 17:51:12
gem5 executing on 2f9500df84ff, pid 648
command line: build/ARM/gem5.opt configs/withcache/sve/256size-512kb-sve.py --vl=1

Beginning simulation!
src/sim/simulate.cc:199: info: Entering event queue @ 0.  Starting simulation...
src/sim/syscall_emul.cc:74: warn: ignoring syscall set_robust_list(...)
src/sim/syscall_emul.cc:85: warn: ignoring syscall rseq(...)
      (further warnings will be suppressed)
src/sim/mem_state.cc:448: info: Increasing stack size by one page.
src/sim/syscall_emul.hh:1075: warn: readlink() called on '/proc/self/exe' may yield unexpected results in various settings.
      Returning '/gem5/running/256_sve128'
src/sim/syscall_emul.cc:74: warn: ignoring syscall mprotect(...)
Exiting @ tick 26380466000 because exiting with last active thread context
Command 'build/ARM/gem5.opt configs/withcache/sve/256size-512kb-sve.py --vl=1' completed at Thu Aug  1 18:06:08 UTC 2024
Copied stats to gem5output/O3/stats-256size-512kb-sve-vl1.txt
------------------------------
Running command: build/ARM/gem5.opt configs/withcache/sve/256size-512kb-sve.py --vl=2 at Thu Aug  1 18:06:08 UTC 2024
Global frequency set at 1000000000000 ticks per second
src/base/statistics.hh:279: warn: One of the stats is a legacy stat. Legacy stat is a stat that does not belong to any statistics::Group. Legacy stat is deprecated.
system.remote_gdb: Listening for connections on port 7000
gem5 Simulator System.  https://www.gem5.org
gem5 is copyrighted software; use the --copyright option for details.

gem5 version 24.0.0.0
gem5 compiled Jul 26 2024 06:31:19
gem5 started Aug  1 2024 18:06:09
gem5 executing on 2f9500df84ff, pid 672
command line: build/ARM/gem5.opt configs/withcache/sve/256size-512kb-sve.py --vl=2

Beginning simulation!
src/sim/simulate.cc:199: info: Entering event queue @ 0.  Starting simulation...
src/sim/syscall_emul.cc:74: warn: ignoring syscall set_robust_list(...)
src/sim/syscall_emul.cc:85: warn: ignoring syscall rseq(...)
      (further warnings will be suppressed)
src/sim/mem_state.cc:448: info: Increasing stack size by one page.
src/sim/syscall_emul.hh:1075: warn: readlink() called on '/proc/self/exe' may yield unexpected results in various settings.
      Returning '/gem5/running/256_sve256'
src/sim/syscall_emul.cc:74: warn: ignoring syscall mprotect(...)
Exiting @ tick 15616941500 because exiting with last active thread context
Command 'build/ARM/gem5.opt configs/withcache/sve/256size-512kb-sve.py --vl=2' completed at Thu Aug  1 18:15:03 UTC 2024
Copied stats to gem5output/O3/stats-256size-512kb-sve-vl2.txt
------------------------------
Running command: build/ARM/gem5.opt configs/withcache/sve/256size-512kb-sve.py --vl=4 at Thu Aug  1 18:15:03 UTC 2024
Global frequency set at 1000000000000 ticks per second
src/base/statistics.hh:279: warn: One of the stats is a legacy stat. Legacy stat is a stat that does not belong to any statistics::Group. Legacy stat is deprecated.
system.remote_gdb: Listening for connections on port 7000
gem5 Simulator System.  https://www.gem5.org
gem5 is copyrighted software; use the --copyright option for details.

gem5 version 24.0.0.0
gem5 compiled Jul 26 2024 06:31:19
gem5 started Aug  1 2024 18:15:04
gem5 executing on 2f9500df84ff, pid 696
command line: build/ARM/gem5.opt configs/withcache/sve/256size-512kb-sve.py --vl=4

Beginning simulation!
src/sim/simulate.cc:199: info: Entering event queue @ 0.  Starting simulation...
src/sim/syscall_emul.cc:74: warn: ignoring syscall set_robust_list(...)
src/sim/syscall_emul.cc:85: warn: ignoring syscall rseq(...)
      (further warnings will be suppressed)
src/sim/mem_state.cc:448: info: Increasing stack size by one page.
src/sim/syscall_emul.hh:1075: warn: readlink() called on '/proc/self/exe' may yield unexpected results in various settings.
      Returning '/gem5/running/256_sve512'
src/sim/syscall_emul.cc:74: warn: ignoring syscall mprotect(...)
Exiting @ tick 9465519250 because exiting with last active thread context
Command 'build/ARM/gem5.opt configs/withcache/sve/256size-512kb-sve.py --vl=4' completed at Thu Aug  1 18:20:55 UTC 2024
Copied stats to gem5output/O3/stats-256size-512kb-sve-vl4.txt
------------------------------
Running command: build/ARM/gem5.opt configs/withcache/sve/512size-128kb-sve.py --vl=1 at Thu Aug  1 18:20:55 UTC 2024
Global frequency set at 1000000000000 ticks per second
src/base/statistics.hh:279: warn: One of the stats is a legacy stat. Legacy stat is a stat that does not belong to any statistics::Group. Legacy stat is deprecated.
system.remote_gdb: Listening for connections on port 7000
gem5 Simulator System.  https://www.gem5.org
gem5 is copyrighted software; use the --copyright option for details.

gem5 version 24.0.0.0
gem5 compiled Jul 26 2024 06:31:19
gem5 started Aug  1 2024 18:20:57
gem5 executing on 2f9500df84ff, pid 721
command line: build/ARM/gem5.opt configs/withcache/sve/512size-128kb-sve.py --vl=1

Beginning simulation!
src/sim/simulate.cc:199: info: Entering event queue @ 0.  Starting simulation...
src/sim/syscall_emul.cc:74: warn: ignoring syscall set_robust_list(...)
src/sim/syscall_emul.cc:85: warn: ignoring syscall rseq(...)
      (further warnings will be suppressed)
src/sim/mem_state.cc:448: info: Increasing stack size by one page.
src/sim/syscall_emul.hh:1075: warn: readlink() called on '/proc/self/exe' may yield unexpected results in various settings.
      Returning '/gem5/running/512_sve128'
src/sim/syscall_emul.cc:74: warn: ignoring syscall mprotect(...)
Exiting @ tick 1472636079500 because exiting with last active thread context
Command 'build/ARM/gem5.opt configs/withcache/sve/512size-128kb-sve.py --vl=1' completed at Thu Aug  1 21:25:26 UTC 2024
Copied stats to gem5output/O3/stats-512size-128kb-sve-vl1.txt
------------------------------
Running command: build/ARM/gem5.opt configs/withcache/sve/512size-128kb-sve.py --vl=2 at Thu Aug  1 21:25:26 UTC 2024
Global frequency set at 1000000000000 ticks per second
src/base/statistics.hh:279: warn: One of the stats is a legacy stat. Legacy stat is a stat that does not belong to any statistics::Group. Legacy stat is deprecated.
system.remote_gdb: Listening for connections on port 7000
gem5 Simulator System.  https://www.gem5.org
gem5 is copyrighted software; use the --copyright option for details.

gem5 version 24.0.0.0
gem5 compiled Jul 26 2024 06:31:19
gem5 started Aug  1 2024 21:25:29
gem5 executing on 2f9500df84ff, pid 745
command line: build/ARM/gem5.opt configs/withcache/sve/512size-128kb-sve.py --vl=2

Beginning simulation!
src/sim/simulate.cc:199: info: Entering event queue @ 0.  Starting simulation...
src/sim/syscall_emul.cc:74: warn: ignoring syscall set_robust_list(...)
src/sim/syscall_emul.cc:85: warn: ignoring syscall rseq(...)
      (further warnings will be suppressed)
src/sim/mem_state.cc:448: info: Increasing stack size by one page.
src/sim/syscall_emul.hh:1075: warn: readlink() called on '/proc/self/exe' may yield unexpected results in various settings.
      Returning '/gem5/running/512_sve256'
src/sim/syscall_emul.cc:74: warn: ignoring syscall mprotect(...)
Exiting @ tick 760765099500 because exiting with last active thread context
Command 'build/ARM/gem5.opt configs/withcache/sve/512size-128kb-sve.py --vl=2' completed at Thu Aug  1 23:14:53 UTC 2024
Copied stats to gem5output/O3/stats-512size-128kb-sve-vl2.txt
------------------------------
Running command: build/ARM/gem5.opt configs/withcache/sve/512size-128kb-sve.py --vl=4 at Thu Aug  1 23:14:53 UTC 2024
Global frequency set at 1000000000000 ticks per second
src/base/statistics.hh:279: warn: One of the stats is a legacy stat. Legacy stat is a stat that does not belong to any statistics::Group. Legacy stat is deprecated.
system.remote_gdb: Listening for connections on port 7000
gem5 Simulator System.  https://www.gem5.org
gem5 is copyrighted software; use the --copyright option for details.

gem5 version 24.0.0.0
gem5 compiled Jul 26 2024 06:31:19
gem5 started Aug  1 2024 23:14:56
gem5 executing on 2f9500df84ff, pid 769
command line: build/ARM/gem5.opt configs/withcache/sve/512size-128kb-sve.py --vl=4

Beginning simulation!
src/sim/simulate.cc:199: info: Entering event queue @ 0.  Starting simulation...
src/sim/syscall_emul.cc:74: warn: ignoring syscall set_robust_list(...)
src/sim/syscall_emul.cc:85: warn: ignoring syscall rseq(...)
      (further warnings will be suppressed)
src/sim/mem_state.cc:448: info: Increasing stack size by one page.
src/sim/syscall_emul.hh:1075: warn: readlink() called on '/proc/self/exe' may yield unexpected results in various settings.
      Returning '/gem5/running/512_sve512'
src/sim/syscall_emul.cc:74: warn: ignoring syscall mprotect(...)
Exiting @ tick 397268837500 because exiting with last active thread context
Command 'build/ARM/gem5.opt configs/withcache/sve/512size-128kb-sve.py --vl=4' completed at Fri Aug  2 00:13:02 UTC 2024
Copied stats to gem5output/O3/stats-512size-128kb-sve-vl4.txt
------------------------------
Running command: build/ARM/gem5.opt configs/withcache/sve/512size-256kb-sve.py --vl=1 at Fri Aug  2 00:13:02 UTC 2024
Global frequency set at 1000000000000 ticks per second
src/base/statistics.hh:279: warn: One of the stats is a legacy stat. Legacy stat is a stat that does not belong to any statistics::Group. Legacy stat is deprecated.
system.remote_gdb: Listening for connections on port 7000
gem5 Simulator System.  https://www.gem5.org
gem5 is copyrighted software; use the --copyright option for details.

gem5 version 24.0.0.0
gem5 compiled Jul 26 2024 06:31:19
gem5 started Aug  2 2024 00:13:04
gem5 executing on 2f9500df84ff, pid 794
command line: build/ARM/gem5.opt configs/withcache/sve/512size-256kb-sve.py --vl=1

Beginning simulation!
src/sim/simulate.cc:199: info: Entering event queue @ 0.  Starting simulation...
src/sim/syscall_emul.cc:74: warn: ignoring syscall set_robust_list(...)
src/sim/syscall_emul.cc:85: warn: ignoring syscall rseq(...)
      (further warnings will be suppressed)
src/sim/mem_state.cc:448: info: Increasing stack size by one page.
src/sim/syscall_emul.hh:1075: warn: readlink() called on '/proc/self/exe' may yield unexpected results in various settings.
      Returning '/gem5/running/512_sve128'
src/sim/syscall_emul.cc:74: warn: ignoring syscall mprotect(...)
Exiting @ tick 1472652126750 because exiting with last active thread context
Command 'build/ARM/gem5.opt configs/withcache/sve/512size-256kb-sve.py --vl=1' completed at Fri Aug  2 03:23:37 UTC 2024
Copied stats to gem5output/O3/stats-512size-256kb-sve-vl1.txt
------------------------------
Running command: build/ARM/gem5.opt configs/withcache/sve/512size-256kb-sve.py --vl=2 at Fri Aug  2 03:23:37 UTC 2024
Global frequency set at 1000000000000 ticks per second
src/base/statistics.hh:279: warn: One of the stats is a legacy stat. Legacy stat is a stat that does not belong to any statistics::Group. Legacy stat is deprecated.
system.remote_gdb: Listening for connections on port 7000
gem5 Simulator System.  https://www.gem5.org
gem5 is copyrighted software; use the --copyright option for details.

gem5 version 24.0.0.0
gem5 compiled Jul 26 2024 06:31:19
gem5 started Aug  2 2024 03:23:40
gem5 executing on 2f9500df84ff, pid 818
command line: build/ARM/gem5.opt configs/withcache/sve/512size-256kb-sve.py --vl=2

Beginning simulation!
src/sim/simulate.cc:199: info: Entering event queue @ 0.  Starting simulation...
src/sim/syscall_emul.cc:74: warn: ignoring syscall set_robust_list(...)
src/sim/syscall_emul.cc:85: warn: ignoring syscall rseq(...)
      (further warnings will be suppressed)
src/sim/mem_state.cc:448: info: Increasing stack size by one page.
src/sim/syscall_emul.hh:1075: warn: readlink() called on '/proc/self/exe' may yield unexpected results in various settings.
      Returning '/gem5/running/512_sve256'
src/sim/syscall_emul.cc:74: warn: ignoring syscall mprotect(...)
Exiting @ tick 760778284500 because exiting with last active thread context
Command 'build/ARM/gem5.opt configs/withcache/sve/512size-256kb-sve.py --vl=2' completed at Fri Aug  2 05:11:35 UTC 2024
Copied stats to gem5output/O3/stats-512size-256kb-sve-vl2.txt
------------------------------
Running command: build/ARM/gem5.opt configs/withcache/sve/512size-256kb-sve.py --vl=4 at Fri Aug  2 05:11:35 UTC 2024
Global frequency set at 1000000000000 ticks per second
src/base/statistics.hh:279: warn: One of the stats is a legacy stat. Legacy stat is a stat that does not belong to any statistics::Group. Legacy stat is deprecated.
system.remote_gdb: Listening for connections on port 7000
gem5 Simulator System.  https://www.gem5.org
gem5 is copyrighted software; use the --copyright option for details.

gem5 version 24.0.0.0
gem5 compiled Jul 26 2024 06:31:19
gem5 started Aug  2 2024 05:11:40
gem5 executing on 2f9500df84ff, pid 842
command line: build/ARM/gem5.opt configs/withcache/sve/512size-256kb-sve.py --vl=4

Beginning simulation!
src/sim/simulate.cc:199: info: Entering event queue @ 0.  Starting simulation...
src/sim/syscall_emul.cc:74: warn: ignoring syscall set_robust_list(...)
src/sim/syscall_emul.cc:85: warn: ignoring syscall rseq(...)
      (further warnings will be suppressed)
src/sim/mem_state.cc:448: info: Increasing stack size by one page.
src/sim/syscall_emul.hh:1075: warn: readlink() called on '/proc/self/exe' may yield unexpected results in various settings.
      Returning '/gem5/running/512_sve512'
src/sim/syscall_emul.cc:74: warn: ignoring syscall mprotect(...)
Exiting @ tick 397288906250 because exiting with last active thread context
Command 'build/ARM/gem5.opt configs/withcache/sve/512size-256kb-sve.py --vl=4' completed at Fri Aug  2 06:19:23 UTC 2024
Copied stats to gem5output/O3/stats-512size-256kb-sve-vl4.txt
------------------------------
Running command: build/ARM/gem5.opt configs/withcache/sve/512size-512kb-sve.py --vl=1 at Fri Aug  2 06:19:23 UTC 2024
Global frequency set at 1000000000000 ticks per second
src/base/statistics.hh:279: warn: One of the stats is a legacy stat. Legacy stat is a stat that does not belong to any statistics::Group. Legacy stat is deprecated.
system.remote_gdb: Listening for connections on port 7000
[...]
src/sim/syscall_emul.cc:85: warn: ignoring syscall rseq(...)
      (further warnings will be suppressed)
src/sim/mem_state.cc:448: info: Increasing stack size by one page.
src/sim/syscall_emul.hh:1075: warn: readlink() called on '/proc/self/exe' may yield unexpected results in various settings.
      Returning '/gem5/running/384_sme2048'
src/sim/syscall_emul.cc:74: warn: ignoring syscall mprotect(...)
Exiting @ tick 7548139000 because exiting with last active thread context
Command 'build/ARM/gem5.opt configs/withcache/sme/384size-512kb-sme.py --vl=16' completed at Tue Aug  6 19:45:38 UTC 2024
Copied stats to gem5output/O3/stats-384size-512kb-sme-vl16.txt
------------------------------
Running command: build/ARM/gem5.opt configs/withcache/sve/512size-128kb-sve.py --vl=8 at Tue Aug  6 19:45:38 UTC 2024
Global frequency set at 1000000000000 ticks per second
src/base/statistics.hh:279: warn: One of the stats is a legacy stat. Legacy stat is a stat that does not belong to any statistics::Group. Legacy stat is deprecated.
system.remote_gdb: Listening for connections on port 7000
gem5 Simulator System.  https://www.gem5.org
gem5 is copyrighted software; use the --copyright option for details.

gem5 version 24.0.0.0
gem5 compiled Jul 26 2024 06:31:19
gem5 started Aug  6 2024 19:45:40
gem5 executing on b136ead60073, pid 996
command line: build/ARM/gem5.opt configs/withcache/sve/512size-128kb-sve.py --vl=8

Beginning simulation!
src/sim/simulate.cc:199: info: Entering event queue @ 0.  Starting simulation...
src/sim/syscall_emul.cc:74: warn: ignoring syscall set_robust_list(...)
src/sim/syscall_emul.cc:85: warn: ignoring syscall rseq(...)
      (further warnings will be suppressed)
src/sim/mem_state.cc:448: info: Increasing stack size by one page.
src/sim/syscall_emul.hh:1075: warn: readlink() called on '/proc/self/exe' may yield unexpected results in various settings.
      Returning '/gem5/running/512_sve1024'
src/sim/syscall_emul.cc:74: warn: ignoring syscall mprotect(...)
Exiting @ tick 220770575000 because exiting with last active thread context
Command 'build/ARM/gem5.opt configs/withcache/sve/512size-128kb-sve.py --vl=8' completed at Tue Aug  6 20:24:12 UTC 2024
Copied stats to gem5output/O3/stats-512size-128kb-sve-vl8.txt
------------------------------
Running command: build/ARM/gem5.opt configs/withcache/sve/512size-128kb-sve.py --vl=16 at Tue Aug  6 20:24:12 UTC 2024
Global frequency set at 1000000000000 ticks per second
src/base/statistics.hh:279: warn: One of the stats is a legacy stat. Legacy stat is a stat that does not belong to any statistics::Group. Legacy stat is deprecated.
system.remote_gdb: Listening for connections on port 7000
gem5 Simulator System.  https://www.gem5.org
gem5 is copyrighted software; use the --copyright option for details.

gem5 version 24.0.0.0
gem5 compiled Jul 26 2024 06:31:19
gem5 started Aug  6 2024 20:24:13
gem5 executing on b136ead60073, pid 1020
command line: build/ARM/gem5.opt configs/withcache/sve/512size-128kb-sve.py --vl=16

Beginning simulation!
src/sim/simulate.cc:199: info: Entering event queue @ 0.  Starting simulation...
src/sim/syscall_emul.cc:74: warn: ignoring syscall set_robust_list(...)
src/sim/syscall_emul.cc:85: warn: ignoring syscall rseq(...)
      (further warnings will be suppressed)
src/sim/mem_state.cc:448: info: Increasing stack size by one page.
src/sim/syscall_emul.hh:1075: warn: readlink() called on '/proc/self/exe' may yield unexpected results in various settings.
      Returning '/gem5/running/512_sve2048'
src/sim/syscall_emul.cc:74: warn: ignoring syscall mprotect(...)
Exiting @ tick 37044115500 because exiting with last active thread context
Command 'build/ARM/gem5.opt configs/withcache/sve/512size-128kb-sve.py --vl=16' completed at Tue Aug  6 20:43:08 UTC 2024
Copied stats to gem5output/O3/stats-512size-128kb-sve-vl16.txt
------------------------------
Running command: build/ARM/gem5.opt configs/withcache/sme/512size-128kb-sme.py --vl=8 at Tue Aug  6 20:43:08 UTC 2024
Global frequency set at 1000000000000 ticks per second
src/base/statistics.hh:279: warn: One of the stats is a legacy stat. Legacy stat is a stat that does not belong to any statistics::Group. Legacy stat is deprecated.
system.remote_gdb: Listening for connections on port 7000
gem5 Simulator System.  https://www.gem5.org
gem5 is copyrighted software; use the --copyright option for details.

gem5 version 24.0.0.0
gem5 compiled Jul 26 2024 06:31:19
gem5 started Aug  6 2024 20:43:10
gem5 executing on b136ead60073, pid 1045
command line: build/ARM/gem5.opt configs/withcache/sme/512size-128kb-sme.py --vl=8

Beginning simulation!
src/sim/simulate.cc:199: info: Entering event queue @ 0.  Starting simulation...
src/sim/syscall_emul.cc:74: warn: ignoring syscall set_robust_list(...)
src/sim/syscall_emul.cc:85: warn: ignoring syscall rseq(...)
      (further warnings will be suppressed)
src/sim/mem_state.cc:448: info: Increasing stack size by one page.
src/sim/syscall_emul.hh:1075: warn: readlink() called on '/proc/self/exe' may yield unexpected results in various settings.
      Returning '/gem5/running/512_sme1024'
src/sim/syscall_emul.cc:74: warn: ignoring syscall mprotect(...)
Exiting @ tick 13577711500 because exiting with last active thread context
Command 'build/ARM/gem5.opt configs/withcache/sme/512size-128kb-sme.py --vl=8' completed at Tue Aug  6 20:50:19 UTC 2024
Copied stats to gem5output/O3/stats-512size-128kb-sme-vl8.txt
------------------------------
Running command: build/ARM/gem5.opt configs/withcache/sme/512size-128kb-sme.py --vl=16 at Tue Aug  6 20:50:19 UTC 2024
Global frequency set at 1000000000000 ticks per second
src/base/statistics.hh:279: warn: One of the stats is a legacy stat. Legacy stat is a stat that does not belong to any statistics::Group. Legacy stat is deprecated.
system.remote_gdb: Listening for connections on port 7000
gem5 Simulator System.  https://www.gem5.org
gem5 is copyrighted software; use the --copyright option for details.

gem5 version 24.0.0.0
gem5 compiled Jul 26 2024 06:31:19
gem5 started Aug  6 2024 20:50:21
gem5 executing on b136ead60073, pid 1069
command line: build/ARM/gem5.opt configs/withcache/sme/512size-128kb-sme.py --vl=16

Beginning simulation!
src/sim/simulate.cc:199: info: Entering event queue @ 0.  Starting simulation...
src/sim/syscall_emul.cc:74: warn: ignoring syscall set_robust_list(...)
src/sim/syscall_emul.cc:85: warn: ignoring syscall rseq(...)
      (further warnings will be suppressed)
src/sim/mem_state.cc:448: info: Increasing stack size by one page.
src/sim/syscall_emul.hh:1075: warn: readlink() called on '/proc/self/exe' may yield unexpected results in various settings.
      Returning '/gem5/running/512_sme2048'
src/sim/syscall_emul.cc:74: warn: ignoring syscall mprotect(...)
Exiting @ tick 13367069750 because exiting with last active thread context
Command 'build/ARM/gem5.opt configs/withcache/sme/512size-128kb-sme.py --vl=16' completed at Tue Aug  6 20:57:31 UTC 2024
Copied stats to gem5output/O3/stats-512size-128kb-sme-vl16.txt
------------------------------
Running command: build/ARM/gem5.opt configs/withcache/sve/512size-256kb-sve.py --vl=8 at Tue Aug  6 20:57:31 UTC 2024
Global frequency set at 1000000000000 ticks per second
src/base/statistics.hh:279: warn: One of the stats is a legacy stat. Legacy stat is a stat that does not belong to any statistics::Group. Legacy stat is deprecated.
system.remote_gdb: Listening for connections on port 7000
gem5 Simulator System.  https://www.gem5.org
gem5 is copyrighted software; use the --copyright option for details.

gem5 version 24.0.0.0
gem5 compiled Jul 26 2024 06:31:19
gem5 started Aug  6 2024 20:57:32
gem5 executing on b136ead60073, pid 1094
command line: build/ARM/gem5.opt configs/withcache/sve/512size-256kb-sve.py --vl=8

Beginning simulation!
src/sim/simulate.cc:199: info: Entering event queue @ 0.  Starting simulation...
src/sim/syscall_emul.cc:74: warn: ignoring syscall set_robust_list(...)
src/sim/syscall_emul.cc:85: warn: ignoring syscall rseq(...)
      (further warnings will be suppressed)
src/sim/mem_state.cc:448: info: Increasing stack size by one page.
src/sim/syscall_emul.hh:1075: warn: readlink() called on '/proc/self/exe' may yield unexpected results in various settings.
      Returning '/gem5/running/512_sve1024'
src/sim/syscall_emul.cc:74: warn: ignoring syscall mprotect(...)
Exiting @ tick 220792288750 because exiting with last active thread context
Command 'build/ARM/gem5.opt configs/withcache/sve/512size-256kb-sve.py --vl=8' completed at Tue Aug  6 21:34:02 UTC 2024
Copied stats to gem5output/O3/stats-512size-256kb-sve-vl8.txt
------------------------------
Running command: build/ARM/gem5.opt configs/withcache/sve/512size-256kb-sve.py --vl=16 at Tue Aug  6 21:34:02 UTC 2024
Global frequency set at 1000000000000 ticks per second
src/base/statistics.hh:279: warn: One of the stats is a legacy stat. Legacy stat is a stat that does not belong to any statistics::Group. Legacy stat is deprecated.
system.remote_gdb: Listening for connections on port 7000
gem5 Simulator System.  https://www.gem5.org
gem5 is copyrighted software; use the --copyright option for details.

gem5 version 24.0.0.0
gem5 compiled Jul 26 2024 06:31:19
gem5 started Aug  6 2024 21:34:04
gem5 executing on b136ead60073, pid 1118
command line: build/ARM/gem5.opt configs/withcache/sve/512size-256kb-sve.py --vl=16

Beginning simulation!
src/sim/simulate.cc:199: info: Entering event queue @ 0.  Starting simulation...
src/sim/syscall_emul.cc:74: warn: ignoring syscall set_robust_list(...)
src/sim/syscall_emul.cc:85: warn: ignoring syscall rseq(...)
      (further warnings will be suppressed)
src/sim/mem_state.cc:448: info: Increasing stack size by one page.
src/sim/syscall_emul.hh:1075: warn: readlink() called on '/proc/self/exe' may yield unexpected results in various settings.
      Returning '/gem5/running/512_sve2048'
src/sim/syscall_emul.cc:74: warn: ignoring syscall mprotect(...)
Exiting @ tick 36884895500 because exiting with last active thread context
Command 'build/ARM/gem5.opt configs/withcache/sve/512size-256kb-sve.py --vl=16' completed at Tue Aug  6 21:52:49 UTC 2024
Copied stats to gem5output/O3/stats-512size-256kb-sve-vl16.txt
------------------------------
Running command: build/ARM/gem5.opt configs/withcache/sme/512size-256kb-sme.py --vl=8 at Tue Aug  6 21:52:49 UTC 2024
Global frequency set at 1000000000000 ticks per second
src/base/statistics.hh:279: warn: One of the stats is a legacy stat. Legacy stat is a stat that does not belong to any statistics::Group. Legacy stat is deprecated.
system.remote_gdb: Listening for connections on port 7000
gem5 Simulator System.  https://www.gem5.org
gem5 is copyrighted software; use the --copyright option for details.

gem5 version 24.0.0.0
gem5 compiled Jul 26 2024 06:31:19
gem5 started Aug  6 2024 21:52:51
gem5 executing on b136ead60073, pid 1143
command line: build/ARM/gem5.opt configs/withcache/sme/512size-256kb-sme.py --vl=8

Beginning simulation!
src/sim/simulate.cc:199: info: Entering event queue @ 0.  Starting simulation...
src/sim/syscall_emul.cc:74: warn: ignoring syscall set_robust_list(...)
src/sim/syscall_emul.cc:85: warn: ignoring syscall rseq(...)
      (further warnings will be suppressed)
src/sim/mem_state.cc:448: info: Increasing stack size by one page.
src/sim/syscall_emul.hh:1075: warn: readlink() called on '/proc/self/exe' may yield unexpected results in various settings.
      Returning '/gem5/running/512_sme1024'
src/sim/syscall_emul.cc:74: warn: ignoring syscall mprotect(...)
Exiting @ tick 13637066000 because exiting with last active thread context
Command 'build/ARM/gem5.opt configs/withcache/sme/512size-256kb-sme.py --vl=8' completed at Tue Aug  6 21:59:58 UTC 2024
Copied stats to gem5output/O3/stats-512size-256kb-sme-vl8.txt
------------------------------
Running command: build/ARM/gem5.opt configs/withcache/sme/512size-256kb-sme.py --vl=16 at Tue Aug  6 21:59:58 UTC 2024
Global frequency set at 1000000000000 ticks per second
src/base/statistics.hh:279: warn: One of the stats is a legacy stat. Legacy stat is a stat that does not belong to any statistics::Group. Legacy stat is deprecated.
system.remote_gdb: Listening for connections on port 7000
gem5 Simulator System.  https://www.gem5.org
gem5 is copyrighted software; use the --copyright option for details.

gem5 version 24.0.0.0
gem5 compiled Jul 26 2024 06:31:19
gem5 started Aug  6 2024 22:00:00
gem5 executing on b136ead60073, pid 1167
command line: build/ARM/gem5.opt configs/withcache/sme/512size-256kb-sme.py --vl=16

Beginning simulation!
src/sim/simulate.cc:199: info: Entering event queue @ 0.  Starting simulation...
src/sim/syscall_emul.cc:74: warn: ignoring syscall set_robust_list(...)
src/sim/syscall_emul.cc:85: warn: ignoring syscall rseq(...)
      (further warnings will be suppressed)
src/sim/mem_state.cc:448: info: Increasing stack size by one page.
src/sim/syscall_emul.hh:1075: warn: readlink() called on '/proc/self/exe' may yield unexpected results in various settings.
      Returning '/gem5/running/512_sme2048'
src/sim/syscall_emul.cc:74: warn: ignoring syscall mprotect(...)
Exiting @ tick 13426594750 because exiting with last active thread context
Command 'build/ARM/gem5.opt configs/withcache/sme/512size-256kb-sme.py --vl=16' completed at Tue Aug  6 22:07:05 UTC 2024
Copied stats to gem5output/O3/stats-512size-256kb-sme-vl16.txt
------------------------------
Running command: build/ARM/gem5.opt configs/withcache/sve/512size-512kb-sve.py --vl=8 at Tue Aug  6 22:07:05 UTC 2024
Global frequency set at 1000000000000 ticks per second
src/base/statistics.hh:279: warn: One of the stats is a legacy stat. Legacy stat is a stat that does not belong to any statistics::Group. Legacy stat is deprecated.
system.remote_gdb: Listening for connections on port 7000
gem5 Simulator System.  https://www.gem5.org
gem5 is copyrighted software; use the --copyright option for details.

gem5 version 24.0.0.0
gem5 compiled Jul 26 2024 06:31:19
gem5 started Aug  6 2024 22:07:07
gem5 executing on b136ead60073, pid 1192
command line: build/ARM/gem5.opt configs/withcache/sve/512size-512kb-sve.py --vl=8

Beginning simulation!
src/sim/simulate.cc:199: info: Entering event queue @ 0.  Starting simulation...
src/sim/syscall_emul.cc:74: warn: ignoring syscall set_robust_list(...)
src/sim/syscall_emul.cc:85: warn: ignoring syscall rseq(...)
      (further warnings will be suppressed)
src/sim/mem_state.cc:448: info: Increasing stack size by one page.
src/sim/syscall_emul.hh:1075: warn: readlink() called on '/proc/self/exe' may yield unexpected results in various settings.
      Returning '/gem5/running/512_sve1024'
src/sim/syscall_emul.cc:74: warn: ignoring syscall mprotect(...)
Exiting @ tick 220315725000 because exiting with last active thread context
Command 'build/ARM/gem5.opt configs/withcache/sve/512size-512kb-sve.py --vl=8' completed at Tue Aug  6 22:43:59 UTC 2024
Copied stats to gem5output/O3/stats-512size-512kb-sve-vl8.txt
------------------------------
Running command: build/ARM/gem5.opt configs/withcache/sve/512size-512kb-sve.py --vl=16 at Tue Aug  6 22:43:59 UTC 2024
Global frequency set at 1000000000000 ticks per second
src/base/statistics.hh:279: warn: One of the stats is a legacy stat. Legacy stat is a stat that does not belong to any statistics::Group. Legacy stat is deprecated.
system.remote_gdb: Listening for connections on port 7000
gem5 Simulator System.  https://www.gem5.org
gem5 is copyrighted software; use the --copyright option for details.

gem5 version 24.0.0.0
gem5 compiled Jul 26 2024 06:31:19
gem5 started Aug  6 2024 22:44:01
gem5 executing on b136ead60073, pid 1216
command line: build/ARM/gem5.opt configs/withcache/sve/512size-512kb-sve.py --vl=16

Beginning simulation!
src/sim/simulate.cc:199: info: Entering event queue @ 0.  Starting simulation...
src/sim/syscall_emul.cc:74: warn: ignoring syscall set_robust_list(...)
src/sim/syscall_emul.cc:85: warn: ignoring syscall rseq(...)
      (further warnings will be suppressed)
src/sim/mem_state.cc:448: info: Increasing stack size by one page.
src/sim/syscall_emul.hh:1075: warn: readlink() called on '/proc/self/exe' may yield unexpected results in various settings.
      Returning '/gem5/running/512_sve2048'
src/sim/syscall_emul.cc:74: warn: ignoring syscall mprotect(...)
Exiting @ tick 35230194750 because exiting with last active thread context
Command 'build/ARM/gem5.opt configs/withcache/sve/512size-512kb-sve.py --vl=16' completed at Tue Aug  6 23:05:13 UTC 2024
Copied stats to gem5output/O3/stats-512size-512kb-sve-vl16.txt
------------------------------
Running command: build/ARM/gem5.opt configs/withcache/sme/512size-512kb-sme.py --vl=8 at Tue Aug  6 23:05:13 UTC 2024
Global frequency set at 1000000000000 ticks per second
src/base/statistics.hh:279: warn: One of the stats is a legacy stat. Legacy stat is a stat that does not belong to any statistics::Group. Legacy stat is deprecated.
system.remote_gdb: Listening for connections on port 7000
gem5 Simulator System.  https://www.gem5.org
gem5 is copyrighted software; use the --copyright option for details.

gem5 version 24.0.0.0
gem5 compiled Jul 26 2024 06:31:19
gem5 started Aug  6 2024 23:05:15
gem5 executing on b136ead60073, pid 1241
command line: build/ARM/gem5.opt configs/withcache/sme/512size-512kb-sme.py --vl=8

Beginning simulation!
src/sim/simulate.cc:199: info: Entering event queue @ 0.  Starting simulation...
src/sim/syscall_emul.cc:74: warn: ignoring syscall set_robust_list(...)
src/sim/syscall_emul.cc:85: warn: ignoring syscall rseq(...)
      (further warnings will be suppressed)
src/sim/mem_state.cc:448: info: Increasing stack size by one page.
src/sim/syscall_emul.hh:1075: warn: readlink() called on '/proc/self/exe' may yield unexpected results in various settings.
      Returning '/gem5/running/512_sme1024'
src/sim/syscall_emul.cc:74: warn: ignoring syscall mprotect(...)
Exiting @ tick 13634322000 because exiting with last active thread context
Command 'build/ARM/gem5.opt configs/withcache/sme/512size-512kb-sme.py --vl=8' completed at Tue Aug  6 23:13:29 UTC 2024
Copied stats to gem5output/O3/stats-512size-512kb-sme-vl8.txt
------------------------------
Running command: build/ARM/gem5.opt configs/withcache/sme/512size-512kb-sme.py --vl=16 at Tue Aug  6 23:13:29 UTC 2024
Global frequency set at 1000000000000 ticks per second
src/base/statistics.hh:279: warn: One of the stats is a legacy stat. Legacy stat is a stat that does not belong to any statistics::Group. Legacy stat is deprecated.
system.remote_gdb: Listening for connections on port 7000
gem5 Simulator System.  https://www.gem5.org
gem5 is copyrighted software; use the --copyright option for details.

gem5 version 24.0.0.0
gem5 compiled Jul 26 2024 06:31:19
gem5 started Aug  6 2024 23:13:31
gem5 executing on b136ead60073, pid 1265
command line: build/ARM/gem5.opt configs/withcache/sme/512size-512kb-sme.py --vl=16

Beginning simulation!
src/sim/simulate.cc:199: info: Entering event queue @ 0.  Starting simulation...
src/sim/syscall_emul.cc:74: warn: ignoring syscall set_robust_list(...)
src/sim/syscall_emul.cc:85: warn: ignoring syscall rseq(...)
      (further warnings will be suppressed)
src/sim/mem_state.cc:448: info: Increasing stack size by one page.
src/sim/syscall_emul.hh:1075: warn: readlink() called on '/proc/self/exe' may yield unexpected results in various settings.
      Returning '/gem5/running/512_sme2048'
src/sim/syscall_emul.cc:74: warn: ignoring syscall mprotect(...)
Exiting @ tick 13422744250 because exiting with last active thread context
Command 'build/ARM/gem5.opt configs/withcache/sme/512size-512kb-sme.py --vl=16' completed at Tue Aug  6 23:21:09 UTC 2024
Copied stats to gem5output/O3/stats-512size-512kb-sme-vl16.txt
------------------------------
Script finished at Tue Aug  6 23:21:09 UTC 2024
